[General]
network = lora.simulations.Net
sim-time-limit=1000s
Net.WELL[0].id=0
Net.WELL[1].id=1
Net.WELL[2].id=2
Net.WELL[3].id=3
Net.WELL[4].id=4
Net.WELL[5].id=5
Net.WELL[6].id=6
Net.WELL[7].id=7
Net.WELL[8].id=8
Net.WELL[9].id=9
Net.WELL[10].id=10
Net.WELL[11].id=11
Net.WELL[12].id=12
Net.WELL[13].id=13
Net.WELL[14].id=14
Net.WELL[15].id=15
Net.WELL[16].id=16
Net.WELL[17].id=17
Net.WELL[18].id=18
Net.WELL[19].id=19
Net.WELL[20].id=20
Net.WELL[21].id=21
Net.WELL[22].id=22
Net.WELL[23].id=23
Net.WELL[24].id=24
Net.WELL[25].id=25
Net.WELL[26].id=26
Net.WELL[27].id=27
Net.WELL[28].id=28
Net.WELL[29].id=29
Net.WELL[30].id=30
Net.WELL[31].id=31
Net.WELL[32].id=32
Net.WELL[33].id=33
Net.WELL[34].id=34
Net.WELL[35].id=35
Net.WELL[36].id=36
Net.WELL[37].id=37
Net.WELL[38].id=38
Net.WELL[39].id=39
Net.WELL[40].id=40
Net.WELL[41].id=41
Net.WELL[42].id=42
Net.WELL[43].id=43
Net.WELL[44].id=44
Net.WELL[45].id=45
Net.WELL[46].id=46
Net.WELL[47].id=47
Net.WELL[48].id=48
Net.WELL[49].id=49
Net.WELL[50].id=50
Net.WELL[51].id=51
Net.WELL[52].id=52
Net.WELL[53].id=53
Net.WELL[54].id=54
Net.WELL[55].id=55
Net.WELL[56].id=56
Net.WELL[57].id=57
Net.WELL[58].id=58
Net.WELL[59].id=59
Net.WELL[60].id=60
Net.WELL[61].id=61
Net.WELL[62].id=62
Net.WELL[63].id=63
Net.WELL[64].id=64
Net.WELL[65].id=65
Net.WELL[66].id=66
Net.WELL[67].id=67
Net.WELL[68].id=68
Net.WELL[69].id=69
Net.WELL[70].id=70
Net.WELL[71].id=71
Net.WELL[72].id=72
Net.WELL[73].id=73
Net.WELL[74].id=74
Net.WELL[75].id=75
Net.WELL[76].id=76
Net.WELL[77].id=77
Net.WELL[78].id=78
Net.WELL[79].id=79
Net.WELL[80].id=80
Net.WELL[81].id=81
Net.WELL[82].id=82
Net.WELL[83].id=83
Net.WELL[84].id=84
Net.WELL[85].id=85
Net.WELL[86].id=86
Net.WELL[87].id=87
Net.WELL[88].id=88
Net.WELL[89].id=89
Net.WELL[90].id=90
Net.WELL[91].id=91
Net.WELL[92].id=92
Net.WELL[93].id=93
Net.WELL[94].id=94
Net.WELL[95].id=95
Net.WELL[96].id=96
Net.WELL[97].id=97
Net.WELL[98].id=98
Net.WELL[99].id=99
Net.WELL[100].id=100
Net.WELL[101].id=101
Net.WELL[102].id=102
Net.WELL[103].id=103
Net.WELL[104].id=104
Net.WELL[105].id=105
Net.WELL[106].id=106
Net.WELL[107].id=107
Net.WELL[108].id=108
Net.WELL[109].id=109
Net.WELL[110].id=110
Net.WELL[111].id=111
Net.WELL[112].id=112
Net.WELL[113].id=113
Net.WGW[0].id=114
Net.WGW[1].id=115
Net.WGW[2].id=116
Net.WGW[3].id=117
Net.WGW[4].id=118
Net.WGW[5].id=119
Net.WGW[6].id=120
Net.WGW[7].id=121
Net.WGW[8].id=122
Net.WGW[9].id=123
Net.WGW[10].id=124
Net.WGW[11].id=125
Net.WGW[12].id=126
Net.WGW[13].id=127
Net.WGW[14].id=128
Net.WGW[15].id=129
Net.WGW[16].id=130
Net.WGW[17].id=131
Net.WGW[18].id=132
Net.WGW[19].id=133
Net.WGW[20].id=134
Net.WGW[21].id=135
Net.WGW[22].id=136
Net.WGW[23].id=137
Net.WGW[24].id=138
Net.WGW[25].id=139
Net.WGW[26].id=140
Net.WGW[27].id=141
Net.WGW[28].id=142
Net.WGW[29].id=143
Net.WGW[30].id=144
Net.WGW[31].id=145
Net.WGW[32].id=146
Net.WGW[33].id=147
Net.WGW[34].id=148
Net.WGW[35].id=149
Net.WGW[36].id=150
Net.WGW[37].id=151
Net.WGW[38].id=152
Net.WGW[39].id=153
Net.WGW[40].id=154
Net.WGW[41].id=155
Net.WGW[42].id=156
Net.WGW[43].id=157
Net.WGW[44].id=158
Net.WGW[45].id=159
Net.WGW[46].id=160
Net.WGW[47].id=161
Net.WGW[48].id=162
Net.WGW[49].id=163
Net.WGW[50].id=164
Net.WGW[51].id=165
Net.WGW[52].id=166
Net.WGW[53].id=167
Net.WGW[54].id=168
Net.WGW[55].id=169
Net.WGW[56].id=170
Net.WGW[57].id=171
Net.WGW[58].id=172
Net.WGW[59].id=173
Net.WGW[60].id=174
Net.WGW[61].id=175
Net.WGW[62].id=176
Net.WGW[63].id=177
Net.WGW[64].id=178
Net.WGW[65].id=179
Net.WGW[66].id=180
Net.WGW[67].id=181
Net.WGW[68].id=182
Net.WGW[69].id=183
Net.WGW[70].id=184
Net.WGW[71].id=185
Net.WGW[72].id=186
Net.WGW[73].id=187
Net.WGW[74].id=188
Net.WGW[75].id=189
Net.WGW[76].id=190
Net.WGW[77].id=191
Net.WGW[78].id=192
Net.WGW[79].id=193
Net.WGW[80].id=194
Net.WGW[81].id=195
Net.WGW[82].id=196
Net.WGW[83].id=197
Net.WGW[84].id=198
Net.WGW[85].id=199
Net.WGW[86].id=200
Net.WGW[87].id=201
Net.WGW[88].id=202
Net.WGW[89].id=203
Net.WGW[90].id=204
Net.WGW[91].id=205
Net.WGW[92].id=206
Net.WGW[93].id=207
Net.WGW[94].id=208
Net.WGW[95].id=209
Net.WGW[96].id=210
Net.WGW[97].id=211
Net.WGW[98].id=212
Net.WGW[99].id=213
Net.WGW[100].id=214
Net.WGW[101].id=215
Net.WGW[102].id=216
Net.WGW[103].id=217
Net.WGW[104].id=218
Net.WGW[105].id=219
Net.WGW[106].id=220
Net.WGW[107].id=221
Net.WGW[108].id=222
Net.WGW[109].id=223
Net.WGW[110].id=224
Net.WGW[111].id=225
Net.WGW[112].id=226
Net.WGW[113].id=227
Net.WGW[114].id=228
Net.WGW[115].id=229
Net.WGW[116].id=230
Net.WGW[117].id=231
Net.WGW[118].id=232
Net.WGW[119].id=233
Net.WGW[120].id=234
Net.WGW[121].id=235
Net.WGW[122].id=236
Net.WGW[123].id=237
Net.WGW[124].id=238
Net.WGW[125].id=239
Net.WGW[126].id=240
Net.WGW[127].id=241
Net.WGW[128].id=242
Net.WGW[129].id=243
Net.WGW[130].id=244
Net.WGW[131].id=245
Net.WGW[132].id=246
Net.WGW[133].id=247
Net.WGW[134].id=248
Net.WGW[135].id=249
Net.WGW[136].id=250
Net.WGW[137].id=251
Net.WGW[138].id=252
Net.WGW[139].id=253
Net.WGW[140].id=254
Net.WGW[141].id=255
Net.WGW[142].id=256
Net.WGW[143].id=257
Net.WGW[144].id=258
Net.WGW[145].id=259
Net.WGW[146].id=260
Net.WGW[147].id=261
Net.WGW[148].id=262
Net.WGW[149].id=263
Net.WGW[150].id=264
Net.WGW[151].id=265
Net.WGW[152].id=266
Net.WGW[153].id=267
Net.WGW[154].id=268
Net.WGW[155].id=269
Net.WGW[156].id=270
Net.WGW[157].id=271
Net.WGW[158].id=272
Net.WGW[159].id=273
Net.WGW[160].id=274
Net.WGW[161].id=275
Net.WGW[162].id=276
Net.WGW[163].id=277
Net.WGW[164].id=278
Net.WGW[165].id=279
Net.WGW[166].id=280
Net.WGW[167].id=281
Net.WGW[168].id=282
Net.WGW[169].id=283
Net.WGW[170].id=284
Net.WGW[171].id=285
Net.WGW[172].id=286
Net.WGW[173].id=287
Net.WGW[174].id=288
Net.WGW[175].id=289
Net.WGW[176].id=290
Net.WGW[177].id=291
Net.WGW[178].id=292
Net.WGW[179].id=293
Net.WGW[180].id=294
Net.WGW[181].id=295
Net.WGW[182].id=296
Net.WGW[183].id=297
Net.WGW[184].id=298
Net.WGW[185].id=299
Net.WGW[186].id=300
Net.WGW[187].id=301
Net.WGW[188].id=302
Net.WGW[189].id=303
Net.WGW[190].id=304
Net.WGW[191].id=305
Net.WGW[192].id=306
Net.WGW[193].id=307
Net.WGW[194].id=308
Net.WGW[195].id=309
Net.WGW[196].id=310
Net.WGW[197].id=311
Net.WGW[198].id=312
Net.WGW[199].id=313
Net.WGW[200].id=314
Net.WGW[201].id=315
Net.WGW[202].id=316
Net.WGW[203].id=317
Net.WGW[204].id=318
Net.WGW[205].id=319
Net.WGW[206].id=320
Net.WGW[207].id=321
Net.WGW[208].id=322
Net.WGW[209].id=323
Net.WGW[210].id=324
Net.WGW[211].id=325
Net.WGW[212].id=326
Net.WGW[213].id=327
Net.WGW[214].id=328
Net.WGW[215].id=329
Net.WGW[216].id=330
Net.WGW[217].id=331
Net.WGW[218].id=332
Net.WGW[219].id=333
Net.WGW[220].id=334
Net.WGW[221].id=335
Net.WGW[222].id=336
Net.WGW[223].id=337
Net.WGW[224].id=338
Net.WGW[225].id=339
Net.WGW[226].id=340
Net.WGW[227].id=341
Net.WGW[228].id=342
Net.WGW[229].id=343
Net.WGW[230].id=344
Net.WGW[231].id=345
Net.WGW[232].id=346
Net.WGW[233].id=347
Net.WGW[234].id=348
Net.WGW[235].id=349
Net.WGW[236].id=350
Net.WGW[237].id=351
Net.WGW[238].id=352
Net.WGW[239].id=353
Net.WGW[240].id=354
Net.WGW[241].id=355
Net.WGW[242].id=356
Net.WGW[243].id=357
Net.WGW[244].id=358
Net.WGW[245].id=359
Net.WGW[246].id=360
Net.WGW[247].id=361
Net.WGW[248].id=362
Net.WGW[249].id=363
Net.WGW[250].id=364
Net.WGW[251].id=365
Net.WGW[252].id=366
Net.WGW[253].id=367
Net.WGW[254].id=368
Net.WGW[255].id=369
Net.WGW[256].id=370
Net.WGW[257].id=371
Net.WGW[258].id=372
Net.WGW[259].id=373
Net.WGW[260].id=374
Net.WGW[261].id=375
Net.WGW[262].id=376
Net.WGW[263].id=377
Net.WGW[264].id=378
Net.WGW[265].id=379
Net.WGW[266].id=380
Net.WGW[267].id=381
Net.WGW[268].id=382
Net.WGW[269].id=383
Net.WGW[270].id=384
Net.WGW[271].id=385
Net.WGW[272].id=386
Net.WGW[273].id=387
Net.WGW[274].id=388
Net.WGW[275].id=389
Net.WGW[276].id=390
Net.WGW[277].id=391
Net.WGW[278].id=392
Net.WGW[279].id=393
Net.WGW[280].id=394
Net.WGW[281].id=395
Net.WGW[282].id=396
Net.WGW[283].id=397
Net.WGW[284].id=398
Net.WGW[285].id=399
Net.WGW[286].id=400
Net.WGW[287].id=401
Net.WGW[288].id=402
Net.WGW[289].id=403
Net.WGW[290].id=404
Net.WGW[291].id=405
Net.WGW[292].id=406
Net.WGW[293].id=407
Net.WGW[294].id=408
Net.WGW[295].id=409
Net.WGW[296].id=410
Net.WGW[297].id=411
Net.WGW[298].id=412
Net.WGW[299].id=413
Net.WGW[300].id=414
Net.WGW[301].id=415
Net.WGW[302].id=416
Net.WGW[303].id=417
Net.WGW[304].id=418
Net.WGW[305].id=419
Net.WGW[306].id=420
Net.WGW[307].id=421
Net.WGW[308].id=422
Net.WGW[309].id=423
Net.WGW[310].id=424
Net.WGW[311].id=425
Net.WGW[312].id=426
Net.WGW[313].id=427
Net.WGW[314].id=428
Net.WGW[315].id=429
Net.WGW[316].id=430
Net.WGW[317].id=431
Net.WGW[318].id=432
Net.WGW[319].id=433
Net.WGW[320].id=434
Net.WGW[321].id=435
Net.WGW[322].id=436
Net.WGW[323].id=437
Net.WGW[324].id=438
Net.WGW[325].id=439
Net.WGW[326].id=440
Net.WGW[327].id=441
Net.WGW[328].id=442
Net.WGW[329].id=443
Net.WGW[330].id=444
Net.WGW[331].id=445
Net.WGW[332].id=446
Net.WGW[333].id=447
Net.WGW[334].id=448
Net.WGW[335].id=449
Net.WGW[336].id=450
Net.WGW[337].id=451
Net.WGW[338].id=452
Net.WGW[339].id=453
Net.WGW[340].id=454
Net.WGW[341].id=455
Net.WGW[342].id=456
Net.WGW[343].id=457
Net.WGW[344].id=458
Net.WGW[345].id=459
Net.WGW[346].id=460
Net.WGW[347].id=461
Net.WGW[348].id=462
Net.WGW[349].id=463
Net.WGW[350].id=464
Net.WGW[351].id=465
Net.WGW[352].id=466
Net.WGW[353].id=467
Net.WGW[354].id=468
Net.WGW[355].id=469
Net.WGW[356].id=470
Net.WGW[357].id=471
Net.WGW[358].id=472
Net.WGW[359].id=473
Net.WGW[360].id=474
Net.WGW[361].id=475
Net.WGW[362].id=476
Net.WGW[363].id=477
Net.WGW[364].id=478
Net.WGW[365].id=479
Net.WGW[366].id=480
Net.WGW[367].id=481
Net.WGW[368].id=482
Net.WGW[369].id=483
Net.WGW[370].id=484
Net.WGW[371].id=485
Net.WGW[372].id=486
Net.WGW[373].id=487
Net.WGW[374].id=488
Net.WGW[375].id=489
Net.WGW[376].id=490
Net.WGW[377].id=491
Net.WGW[378].id=492
Net.WGW[379].id=493
Net.WGW[380].id=494
Net.WGW[381].id=495
Net.WGW[382].id=496
Net.WGW[383].id=497
Net.WGW[384].id=498
Net.WGW[385].id=499
Net.WGW[386].id=500
Net.WGW[387].id=501
Net.WGW[388].id=502
Net.WGW[389].id=503
Net.WGW[390].id=504
Net.WGW[391].id=505
Net.WGW[392].id=506
Net.WGW[393].id=507
Net.WGW[394].id=508
Net.WGW[395].id=509
Net.WGW[396].id=510
Net.WGW[397].id=511
Net.WGW[398].id=512
Net.WGW[399].id=513
Net.WGW[400].id=514
Net.WGW[401].id=515
Net.WGW[402].id=516
Net.WGW[403].id=517
Net.WGW[404].id=518
Net.WGW[405].id=519
Net.WGW[406].id=520
Net.WGW[407].id=521
Net.WGW[408].id=522
Net.WGW[409].id=523
Net.WGW[410].id=524
Net.WGW[411].id=525
Net.WGW[412].id=526
Net.WGW[413].id=527
Net.WGW[414].id=528
Net.WGW[415].id=529
Net.WGW[416].id=530
Net.WGW[417].id=531
Net.IN[0].id=532
Net.IN[1].id=533
Net.IN[2].id=534
Net.IN[3].id=535
Net.IN[4].id=536
Net.IN[5].id=537
Net.IN[6].id=538
Net.IN[7].id=539
Net.IN[8].id=540
Net.IN[9].id=541
Net.IN[10].id=542
Net.IN[11].id=543
Net.IN[12].id=544
Net.IN[13].id=545
Net.IN[14].id=546
Net.IN[15].id=547
Net.IN[16].id=548
Net.IN[17].id=549
Net.IN[18].id=550
Net.IN[19].id=551
Net.IN[20].id=552
Net.IN[21].id=553
Net.IN[22].id=554
Net.IN[23].id=555
Net.IN[24].id=556
Net.IN[25].id=557
Net.IN[26].id=558
Net.IN[27].id=559
Net.IN[28].id=560
Net.IN[29].id=561
Net.IN[30].id=562
Net.IN[31].id=563
Net.IN[32].id=564
Net.IN[33].id=565
Net.IN[34].id=566
Net.IN[35].id=567
Net.IN[36].id=568
Net.IN[37].id=569
Net.IN[38].id=570
Net.IN[39].id=571
Net.IN[40].id=572
Net.IN[41].id=573
Net.IN[42].id=574
Net.IN[43].id=575
Net.IN[44].id=576
Net.IN[45].id=577
Net.IN[46].id=578
Net.IN[47].id=579
Net.IN[48].id=580
Net.IN[49].id=581
Net.IN[50].id=582
Net.IN[51].id=583
Net.IN[52].id=584
Net.IN[53].id=585
Net.IN[54].id=586
Net.IN[55].id=587
Net.IN[56].id=588
Net.IN[57].id=589
Net.IN[58].id=590
Net.IN[59].id=591
Net.IN[60].id=592
Net.IN[61].id=593
Net.IN[62].id=594
Net.IN[63].id=595
Net.IN[64].id=596
Net.IN[65].id=597
Net.IN[66].id=598
Net.IN[67].id=599
Net.IN[68].id=600
Net.IN[69].id=601
Net.IN[70].id=602
Net.IN[71].id=603
Net.IN[72].id=604
Net.IN[73].id=605
Net.IN[74].id=606
Net.IN[75].id=607
Net.IN[76].id=608
Net.IN[77].id=609
Net.IN[78].id=610
Net.IN[79].id=611
Net.IN[80].id=612
Net.IN[81].id=613
Net.IN[82].id=614
Net.IN[83].id=615
Net.IN[84].id=616
Net.IN[85].id=617
Net.IN[86].id=618
Net.IN[87].id=619
Net.IN[88].id=620
Net.IN[89].id=621
Net.IN[90].id=622
Net.IN[91].id=623
Net.IN[92].id=624
Net.IN[93].id=625
Net.IN[94].id=626
Net.IN[95].id=627
Net.IN[96].id=628
Net.IN[97].id=629
Net.IN[98].id=630
Net.IN[99].id=631
Net.IN[100].id=632
Net.IN[101].id=633
Net.IN[102].id=634
Net.IN[103].id=635
Net.IN[104].id=636
Net.IN[105].id=637
Net.IN[106].id=638
Net.IN[107].id=639
Net.IN[108].id=640
Net.IN[109].id=641
Net.IN[110].id=642
Net.IN[111].id=643
Net.IN[112].id=644
Net.IN[113].id=645
Net.IN[114].id=646
Net.IN[115].id=647
Net.IN[116].id=648
Net.IN[117].id=649
Net.IN[118].id=650
Net.IN[119].id=651
Net.IN[120].id=652
Net.IN[121].id=653
Net.IN[122].id=654
Net.IN[123].id=655
Net.IN[124].id=656
Net.IN[125].id=657
Net.IN[126].id=658
Net.IN[127].id=659
Net.IN[128].id=660
Net.IN[129].id=661
Net.IN[130].id=662
Net.IN[131].id=663
Net.IN[132].id=664
Net.IN[133].id=665
Net.IN[134].id=666
Net.IN[135].id=667
Net.IN[136].id=668
Net.IN[137].id=669
Net.IN[138].id=670
Net.IN[139].id=671
Net.IN[140].id=672
Net.IN[141].id=673
Net.IN[142].id=674
Net.IN[143].id=675
Net.IN[144].id=676
Net.IN[145].id=677
Net.IN[146].id=678
Net.IN[147].id=679
Net.IN[148].id=680
Net.IN[149].id=681
Net.IN[150].id=682
Net.IN[151].id=683
Net.IN[152].id=684
Net.IN[153].id=685
Net.IN[154].id=686
Net.IN[155].id=687
Net.IN[156].id=688
Net.IN[157].id=689
Net.IN[158].id=690
Net.IN[159].id=691
Net.IN[160].id=692
Net.IN[161].id=693
Net.IN[162].id=694
Net.IN[163].id=695
Net.IN[164].id=696
Net.IN[165].id=697
Net.IN[166].id=698
Net.IN[167].id=699
Net.IN[168].id=700
Net.IN[169].id=701
Net.IN[170].id=702
Net.IN[171].id=703
Net.IN[172].id=704
Net.IN[173].id=705
Net.IN[174].id=706
Net.IN[175].id=707
Net.IN[176].id=708
Net.IN[177].id=709
Net.IN[178].id=710
Net.IN[179].id=711
Net.IN[180].id=712
Net.IN[181].id=713
Net.IN[182].id=714
Net.IN[183].id=715
Net.IN[184].id=716
Net.IN[185].id=717
Net.IN[186].id=718
Net.IN[187].id=719
Net.IN[188].id=720
Net.IN[189].id=721
Net.IN[190].id=722
Net.IN[191].id=723
Net.IN[192].id=724
Net.IN[193].id=725
Net.IN[194].id=726
Net.IN[195].id=727
Net.IN[196].id=728
Net.IN[197].id=729
Net.IN[198].id=730
Net.IN[199].id=731
Net.IN[200].id=732
Net.IN[201].id=733
Net.IN[202].id=734
Net.IN[203].id=735
Net.IN[204].id=736
Net.IN[205].id=737
Net.IN[206].id=738
Net.IN[207].id=739
Net.IN[208].id=740
Net.IN[209].id=741
Net.IN[210].id=742
Net.IN[211].id=743
Net.IN[212].id=744
Net.IN[213].id=745
Net.IN[214].id=746
Net.IN[215].id=747
Net.IN[216].id=748
Net.IN[217].id=749
Net.IN[218].id=750
Net.IN[219].id=751
Net.IN[220].id=752
Net.IN[221].id=753
Net.IN[222].id=754
Net.IN[223].id=755
Net.IN[224].id=756
Net.IN[225].id=757
Net.IN[226].id=758
Net.IN[227].id=759
Net.IN[228].id=760
Net.IN[229].id=761
Net.IN[230].id=762
Net.IN[231].id=763
Net.IN[232].id=764
Net.IN[233].id=765
Net.IN[234].id=766
Net.IN[235].id=767
Net.IN[236].id=768
Net.IN[237].id=769
Net.IN[238].id=770
Net.IN[239].id=771
Net.IN[240].id=772
Net.IN[241].id=773
Net.IN[242].id=774
Net.IN[243].id=775
Net.IN[244].id=776
Net.IN[245].id=777
Net.IN[246].id=778
Net.IN[247].id=779
Net.IN[248].id=780
Net.IN[249].id=781
Net.IN[250].id=782
Net.IN[251].id=783
Net.IN[252].id=784
Net.IN[253].id=785
Net.IN[254].id=786
Net.IN[255].id=787
Net.IN[256].id=788
Net.IN[257].id=789
Net.IN[258].id=790
Net.IN[259].id=791
Net.IN[260].id=792
Net.IN[261].id=793
Net.IN[262].id=794
Net.IN[263].id=795
Net.IN[264].id=796
Net.IN[265].id=797
Net.IN[266].id=798
Net.IN[267].id=799
Net.IN[268].id=800
Net.IN[269].id=801
Net.IN[270].id=802
Net.IN[271].id=803
Net.IN[272].id=804
Net.IN[273].id=805
Net.IN[274].id=806
Net.IN[275].id=807
Net.IN[276].id=808
Net.IN[277].id=809
Net.IN[278].id=810
Net.IN[279].id=811
Net.IN[280].id=812
Net.IN[281].id=813
Net.IN[282].id=814
Net.IN[283].id=815
Net.IN[284].id=816
Net.IN[285].id=817
Net.IN[286].id=818
Net.IN[287].id=819
Net.IN[288].id=820
Net.IN[289].id=821
Net.IN[290].id=822
Net.IN[291].id=823
Net.IN[292].id=824
Net.IN[293].id=825
Net.IN[294].id=826
Net.IN[295].id=827
Net.IN[296].id=828
Net.IN[297].id=829
Net.IN[298].id=830
Net.IN[299].id=831
Net.IN[300].id=832
Net.IN[301].id=833
Net.IN[302].id=834
Net.IN[303].id=835
Net.IN[304].id=836
Net.IN[305].id=837
Net.IN[306].id=838
Net.IN[307].id=839
Net.IN[308].id=840
Net.IN[309].id=841
Net.IN[310].id=842
Net.IN[311].id=843
Net.IN[312].id=844
Net.IN[313].id=845
Net.IN[314].id=846
Net.IN[315].id=847
Net.IN[316].id=848
Net.IN[317].id=849
Net.IN[318].id=850
Net.IN[319].id=851
Net.IN[320].id=852
Net.IN[321].id=853
Net.IN[322].id=854
Net.IN[323].id=855
Net.IN[324].id=856
Net.IN[325].id=857
Net.IN[326].id=858
Net.IN[327].id=859
Net.IN[328].id=860
Net.IN[329].id=861
Net.IN[330].id=862
Net.IN[331].id=863
Net.IN[332].id=864
Net.IN[333].id=865
Net.IN[334].id=866
Net.IN[335].id=867
Net.IN[336].id=868
Net.IN[337].id=869
Net.IN[338].id=870
Net.IN[339].id=871
Net.IN[340].id=872
Net.IN[341].id=873
Net.IN[342].id=874
Net.IN[343].id=875
Net.IN[344].id=876
Net.IN[345].id=877
Net.IN[346].id=878
Net.IN[347].id=879
Net.IN[348].id=880
Net.IN[349].id=881
Net.IN[350].id=882
Net.IN[351].id=883
Net.IN[352].id=884
Net.IN[353].id=885
Net.IN[354].id=886
Net.IN[355].id=887
Net.IN[356].id=888
Net.IN[357].id=889
Net.IN[358].id=890
Net.IN[359].id=891
Net.IN[360].id=892
Net.IN[361].id=893
Net.IN[362].id=894
Net.IN[363].id=895
Net.IN[364].id=896
Net.IN[365].id=897
Net.IN[366].id=898
Net.IN[367].id=899
Net.IN[368].id=900
Net.IN[369].id=901
Net.IN[370].id=902
Net.IN[371].id=903
Net.IN[372].id=904
Net.IN[373].id=905
Net.IN[374].id=906
Net.IN[375].id=907
Net.IN[376].id=908
Net.IN[377].id=909
Net.IN[378].id=910
Net.IN[379].id=911
Net.IN[380].id=912
Net.IN[381].id=913
Net.IN[382].id=914
Net.IN[383].id=915
Net.IN[384].id=916
Net.IN[385].id=917
Net.IN[386].id=918
Net.IN[387].id=919
Net.IN[388].id=920
Net.IN[389].id=921
Net.IN[390].id=922
Net.IN[391].id=923
Net.IN[392].id=924
Net.IN[393].id=925
Net.IN[394].id=926
Net.IN[395].id=927
Net.IN[396].id=928
Net.IN[397].id=929
Net.IN[398].id=930
Net.IN[399].id=931
Net.IN[400].id=932
Net.IN[401].id=933
Net.IN[402].id=934
Net.IN[403].id=935
Net.IN[404].id=936
Net.IN[405].id=937
Net.IN[406].id=938
Net.IN[407].id=939
Net.IN[408].id=940
Net.IN[409].id=941
Net.IN[410].id=942
Net.IN[411].id=943
Net.IN[412].id=944
Net.IN[413].id=945
Net.IN[414].id=946
Net.IN[415].id=947
Net.IN[416].id=948
Net.IN[417].id=949
Net.IN[418].id=950
Net.IN[419].id=951
Net.IN[420].id=952
Net.IN[421].id=953
Net.IN[422].id=954
Net.IN[423].id=955
Net.IN[424].id=956
Net.IN[425].id=957
Net.IN[426].id=958
Net.IN[427].id=959
Net.IN[428].id=960
Net.IN[429].id=961
Net.IN[430].id=962
Net.IN[431].id=963
Net.IN[432].id=964
Net.IN[433].id=965
Net.IN[434].id=966
Net.IN[435].id=967
Net.IN[436].id=968
Net.IN[437].id=969
Net.IN[438].id=970
Net.IN[439].id=971
Net.IN[440].id=972
Net.IN[441].id=973
Net.IN[442].id=974
Net.IN[443].id=975
Net.IN[444].id=976
Net.IN[445].id=977
Net.IN[446].id=978
Net.IN[447].id=979
Net.IN[448].id=980
Net.IN[449].id=981
Net.IN[450].id=982
Net.IN[451].id=983
Net.IN[452].id=984
Net.IN[453].id=985
Net.IN[454].id=986
Net.IN[455].id=987
Net.IN[456].id=988
Net.IN[457].id=989
Net.IN[458].id=990
Net.IN[459].id=991
Net.IN[460].id=992
Net.IN[461].id=993
Net.IN[462].id=994
Net.IN[463].id=995
Net.IN[464].id=996
Net.IN[465].id=997
Net.IN[466].id=998
Net.IN[467].id=999
