[General]
network = lora.simulations.Net
sim-time-limit=100s
Net.LWGW[0].id = 42
Net.LGW[0].id = 3
Net.IN[0].id = 2