[General]
network = lora.simulations.Net
sim-time-limit=300s
Net.LWGW[0].id = 0
Net.LGW[0].id = 1
Net.LGW[1].id = 2
Net.LGW[2].id = 3
Net.LGW[3].id = 4
Net.IN[0].id = 21
Net.IN[1].id = 22
Net.IN[2].id = 23
Net.IN[3].id = 24
Net.IN[4].id = 25
Net.IN[5].id = 26