[General]
network = lora.simulations.Net
sim-time-limit=1000s
Net.well.id = 1
Net.well1.id = 2
Net.well2.id = 3
Net.well3.id = 4
Net.well4.id = 5
Net.well5.id = 6
Net.well6.id = 7
Net.well7.id = 8
Net.LGW.id = 9
Net.LGW1.id = 10
Net.LGW2.id = 11
Net.LGW3.id = 12
Net.LGW4.id = 13
Net.LGW5.id = 14
Net.LGW6.id = 15
Net.LGW7.id = 16
Net.LGW8.id = 17
Net.LGW9.id = 18
Net.LGW10.id = 19
Net.LGW11.id = 20
Net.LGW12.id = 21
Net.LGW13.id = 22
Net.LGW14.id = 23
Net.LGW15.id = 24
Net.IN.id = 26
Net.IN1.id = 27
Net.IN2.id = 28
Net.IN3.id = 29
Net.IN4.id = 30
Net.IN5.id = 31
Net.IN6.id = 32
Net.IN7.id = 33
Net.IN8.id = 34
Net.IN9.id = 35
Net.IN10.id = 36
Net.IN11.id = 37
Net.IN12.id = 38
Net.IN13.id = 39
Net.IN14.id = 40
Net.IN15.id = 41