[General]
user-interface=Cmdenv
network = lora.simulations.Net
sim-time-limit=86400s
ned-path=/Users/joffreyherard/Documents/Master_2/Projet_fin_etude/dev/src/src;/Users/joffreyherard/Documents/Master_2/Projet_fin_etude/dev/src/simulations
Net.WELL[0].id=0
Net.WELL[0].slot=86400
Net.WELL[0].file="graphe0_IN_1_GW_1-1MSG"
Net.WELL[1].id=1
Net.WELL[1].slot=86400
Net.WELL[1].file="graphe0_IN_1_GW_1-1MSG"
Net.WELL[2].id=2
Net.WELL[2].slot=86400
Net.WELL[2].file="graphe0_IN_1_GW_1-1MSG"
Net.WELL[3].id=3
Net.WELL[3].slot=86400
Net.WELL[3].file="graphe0_IN_1_GW_1-1MSG"
Net.WELL[4].id=4
Net.WELL[4].slot=86400
Net.WELL[4].file="graphe0_IN_1_GW_1-1MSG"
Net.WELL[5].id=5
Net.WELL[5].slot=86400
Net.WELL[5].file="graphe0_IN_1_GW_1-1MSG"
Net.WELL[6].id=6
Net.WELL[6].slot=86400
Net.WELL[6].file="graphe0_IN_1_GW_1-1MSG"
Net.WELL[7].id=7
Net.WELL[7].slot=86400
Net.WELL[7].file="graphe0_IN_1_GW_1-1MSG"
Net.WELL[8].id=8
Net.WELL[8].slot=86400
Net.WELL[8].file="graphe0_IN_1_GW_1-1MSG"
Net.WELL[9].id=9
Net.WELL[9].slot=86400
Net.WELL[9].file="graphe0_IN_1_GW_1-1MSG"
Net.WELL[10].id=10
Net.WELL[10].slot=86400
Net.WELL[10].file="graphe0_IN_1_GW_1-1MSG"
Net.WELL[11].id=11
Net.WELL[11].slot=86400
Net.WELL[11].file="graphe0_IN_1_GW_1-1MSG"
Net.WELL[12].id=12
Net.WELL[12].slot=86400
Net.WELL[12].file="graphe0_IN_1_GW_1-1MSG"
Net.WELL[13].id=13
Net.WELL[13].slot=86400
Net.WELL[13].file="graphe0_IN_1_GW_1-1MSG"
Net.WELL[14].id=14
Net.WELL[14].slot=86400
Net.WELL[14].file="graphe0_IN_1_GW_1-1MSG"
Net.WELL[15].id=15
Net.WELL[15].slot=86400
Net.WELL[15].file="graphe0_IN_1_GW_1-1MSG"
Net.WELL[16].id=16
Net.WELL[16].slot=86400
Net.WELL[16].file="graphe0_IN_1_GW_1-1MSG"
Net.WELL[17].id=17
Net.WELL[17].slot=86400
Net.WELL[17].file="graphe0_IN_1_GW_1-1MSG"
Net.WELL[18].id=18
Net.WELL[18].slot=86400
Net.WELL[18].file="graphe0_IN_1_GW_1-1MSG"
Net.WELL[19].id=19
Net.WELL[19].slot=86400
Net.WELL[19].file="graphe0_IN_1_GW_1-1MSG"
Net.WELL[20].id=20
Net.WELL[20].slot=86400
Net.WELL[20].file="graphe0_IN_1_GW_1-1MSG"
Net.WELL[21].id=21
Net.WELL[21].slot=86400
Net.WELL[21].file="graphe0_IN_1_GW_1-1MSG"
Net.WELL[22].id=22
Net.WELL[22].slot=86400
Net.WELL[22].file="graphe0_IN_1_GW_1-1MSG"
Net.WELL[23].id=23
Net.WELL[23].slot=86400
Net.WELL[23].file="graphe0_IN_1_GW_1-1MSG"
Net.WELL[24].id=24
Net.WELL[24].slot=86400
Net.WELL[24].file="graphe0_IN_1_GW_1-1MSG"
Net.WELL[25].id=25
Net.WELL[25].slot=86400
Net.WELL[25].file="graphe0_IN_1_GW_1-1MSG"
Net.WELL[26].id=26
Net.WELL[26].slot=86400
Net.WELL[26].file="graphe0_IN_1_GW_1-1MSG"
Net.WELL[27].id=27
Net.WELL[27].slot=86400
Net.WELL[27].file="graphe0_IN_1_GW_1-1MSG"
Net.WELL[28].id=28
Net.WELL[28].slot=86400
Net.WELL[28].file="graphe0_IN_1_GW_1-1MSG"
Net.WELL[29].id=29
Net.WELL[29].slot=86400
Net.WELL[29].file="graphe0_IN_1_GW_1-1MSG"
Net.WELL[30].id=30
Net.WELL[30].slot=86400
Net.WELL[30].file="graphe0_IN_1_GW_1-1MSG"
Net.WELL[31].id=31
Net.WELL[31].slot=86400
Net.WELL[31].file="graphe0_IN_1_GW_1-1MSG"
Net.WELL[32].id=32
Net.WELL[32].slot=86400
Net.WELL[32].file="graphe0_IN_1_GW_1-1MSG"
Net.WELL[33].id=33
Net.WELL[33].slot=86400
Net.WELL[33].file="graphe0_IN_1_GW_1-1MSG"
Net.WELL[34].id=34
Net.WELL[34].slot=86400
Net.WELL[34].file="graphe0_IN_1_GW_1-1MSG"
Net.WELL[35].id=35
Net.WELL[35].slot=86400
Net.WELL[35].file="graphe0_IN_1_GW_1-1MSG"
Net.WELL[36].id=36
Net.WELL[36].slot=86400
Net.WELL[36].file="graphe0_IN_1_GW_1-1MSG"
Net.WELL[37].id=37
Net.WELL[37].slot=86400
Net.WELL[37].file="graphe0_IN_1_GW_1-1MSG"
Net.WELL[38].id=38
Net.WELL[38].slot=86400
Net.WELL[38].file="graphe0_IN_1_GW_1-1MSG"
Net.WELL[39].id=39
Net.WELL[39].slot=86400
Net.WELL[39].file="graphe0_IN_1_GW_1-1MSG"
Net.WELL[40].id=40
Net.WELL[40].slot=86400
Net.WELL[40].file="graphe0_IN_1_GW_1-1MSG"
Net.WELL[41].id=41
Net.WELL[41].slot=86400
Net.WELL[41].file="graphe0_IN_1_GW_1-1MSG"
Net.WELL[42].id=42
Net.WELL[42].slot=86400
Net.WELL[42].file="graphe0_IN_1_GW_1-1MSG"
Net.WELL[43].id=43
Net.WELL[43].slot=86400
Net.WELL[43].file="graphe0_IN_1_GW_1-1MSG"
Net.WELL[44].id=44
Net.WELL[44].slot=86400
Net.WELL[44].file="graphe0_IN_1_GW_1-1MSG"
Net.WELL[45].id=45
Net.WELL[45].slot=86400
Net.WELL[45].file="graphe0_IN_1_GW_1-1MSG"
Net.WELL[46].id=46
Net.WELL[46].slot=86400
Net.WELL[46].file="graphe0_IN_1_GW_1-1MSG"
Net.WELL[47].id=47
Net.WELL[47].slot=86400
Net.WELL[47].file="graphe0_IN_1_GW_1-1MSG"
Net.WELL[48].id=48
Net.WELL[48].slot=86400
Net.WELL[48].file="graphe0_IN_1_GW_1-1MSG"
Net.WELL[49].id=49
Net.WELL[49].slot=86400
Net.WELL[49].file="graphe0_IN_1_GW_1-1MSG"
Net.WELL[50].id=50
Net.WELL[50].slot=86400
Net.WELL[50].file="graphe0_IN_1_GW_1-1MSG"
Net.WELL[51].id=51
Net.WELL[51].slot=86400
Net.WELL[51].file="graphe0_IN_1_GW_1-1MSG"
Net.WELL[52].id=52
Net.WELL[52].slot=86400
Net.WELL[52].file="graphe0_IN_1_GW_1-1MSG"
Net.WELL[53].id=53
Net.WELL[53].slot=86400
Net.WELL[53].file="graphe0_IN_1_GW_1-1MSG"
Net.WELL[54].id=54
Net.WELL[54].slot=86400
Net.WELL[54].file="graphe0_IN_1_GW_1-1MSG"
Net.WELL[55].id=55
Net.WELL[55].slot=86400
Net.WELL[55].file="graphe0_IN_1_GW_1-1MSG"
Net.WELL[56].id=56
Net.WELL[56].slot=86400
Net.WELL[56].file="graphe0_IN_1_GW_1-1MSG"
Net.WELL[57].id=57
Net.WELL[57].slot=86400
Net.WELL[57].file="graphe0_IN_1_GW_1-1MSG"
Net.WELL[58].id=58
Net.WELL[58].slot=86400
Net.WELL[58].file="graphe0_IN_1_GW_1-1MSG"
Net.WELL[59].id=59
Net.WELL[59].slot=86400
Net.WELL[59].file="graphe0_IN_1_GW_1-1MSG"
Net.WELL[60].id=60
Net.WELL[60].slot=86400
Net.WELL[60].file="graphe0_IN_1_GW_1-1MSG"
Net.WELL[61].id=61
Net.WELL[61].slot=86400
Net.WELL[61].file="graphe0_IN_1_GW_1-1MSG"
Net.WELL[62].id=62
Net.WELL[62].slot=86400
Net.WELL[62].file="graphe0_IN_1_GW_1-1MSG"
Net.WELL[63].id=63
Net.WELL[63].slot=86400
Net.WELL[63].file="graphe0_IN_1_GW_1-1MSG"
Net.WELL[64].id=64
Net.WELL[64].slot=86400
Net.WELL[64].file="graphe0_IN_1_GW_1-1MSG"
Net.WELL[65].id=65
Net.WELL[65].slot=86400
Net.WELL[65].file="graphe0_IN_1_GW_1-1MSG"
Net.WELL[66].id=66
Net.WELL[66].slot=86400
Net.WELL[66].file="graphe0_IN_1_GW_1-1MSG"
Net.WELL[67].id=67
Net.WELL[67].slot=86400
Net.WELL[67].file="graphe0_IN_1_GW_1-1MSG"
Net.WELL[68].id=68
Net.WELL[68].slot=86400
Net.WELL[68].file="graphe0_IN_1_GW_1-1MSG"
Net.WELL[69].id=69
Net.WELL[69].slot=86400
Net.WELL[69].file="graphe0_IN_1_GW_1-1MSG"
Net.WELL[70].id=70
Net.WELL[70].slot=86400
Net.WELL[70].file="graphe0_IN_1_GW_1-1MSG"
Net.WELL[71].id=71
Net.WELL[71].slot=86400
Net.WELL[71].file="graphe0_IN_1_GW_1-1MSG"
Net.WELL[72].id=72
Net.WELL[72].slot=86400
Net.WELL[72].file="graphe0_IN_1_GW_1-1MSG"
Net.WELL[73].id=73
Net.WELL[73].slot=86400
Net.WELL[73].file="graphe0_IN_1_GW_1-1MSG"
Net.WELL[74].id=74
Net.WELL[74].slot=86400
Net.WELL[74].file="graphe0_IN_1_GW_1-1MSG"
Net.WELL[75].id=75
Net.WELL[75].slot=86400
Net.WELL[75].file="graphe0_IN_1_GW_1-1MSG"
Net.WELL[76].id=76
Net.WELL[76].slot=86400
Net.WELL[76].file="graphe0_IN_1_GW_1-1MSG"
Net.WELL[77].id=77
Net.WELL[77].slot=86400
Net.WELL[77].file="graphe0_IN_1_GW_1-1MSG"
Net.WELL[78].id=78
Net.WELL[78].slot=86400
Net.WELL[78].file="graphe0_IN_1_GW_1-1MSG"
Net.WELL[79].id=79
Net.WELL[79].slot=86400
Net.WELL[79].file="graphe0_IN_1_GW_1-1MSG"
Net.WELL[80].id=80
Net.WELL[80].slot=86400
Net.WELL[80].file="graphe0_IN_1_GW_1-1MSG"
Net.WELL[81].id=81
Net.WELL[81].slot=86400
Net.WELL[81].file="graphe0_IN_1_GW_1-1MSG"
Net.WELL[82].id=82
Net.WELL[82].slot=86400
Net.WELL[82].file="graphe0_IN_1_GW_1-1MSG"
Net.WELL[83].id=83
Net.WELL[83].slot=86400
Net.WELL[83].file="graphe0_IN_1_GW_1-1MSG"
Net.WELL[84].id=84
Net.WELL[84].slot=86400
Net.WELL[84].file="graphe0_IN_1_GW_1-1MSG"
Net.WELL[85].id=85
Net.WELL[85].slot=86400
Net.WELL[85].file="graphe0_IN_1_GW_1-1MSG"
Net.WELL[86].id=86
Net.WELL[86].slot=86400
Net.WELL[86].file="graphe0_IN_1_GW_1-1MSG"
Net.WELL[87].id=87
Net.WELL[87].slot=86400
Net.WELL[87].file="graphe0_IN_1_GW_1-1MSG"
Net.WELL[88].id=88
Net.WELL[88].slot=86400
Net.WELL[88].file="graphe0_IN_1_GW_1-1MSG"
Net.WELL[89].id=89
Net.WELL[89].slot=86400
Net.WELL[89].file="graphe0_IN_1_GW_1-1MSG"
Net.WELL[90].id=90
Net.WELL[90].slot=86400
Net.WELL[90].file="graphe0_IN_1_GW_1-1MSG"
Net.WELL[91].id=91
Net.WELL[91].slot=86400
Net.WELL[91].file="graphe0_IN_1_GW_1-1MSG"
Net.WELL[92].id=92
Net.WELL[92].slot=86400
Net.WELL[92].file="graphe0_IN_1_GW_1-1MSG"
Net.WELL[93].id=93
Net.WELL[93].slot=86400
Net.WELL[93].file="graphe0_IN_1_GW_1-1MSG"
Net.WELL[94].id=94
Net.WELL[94].slot=86400
Net.WELL[94].file="graphe0_IN_1_GW_1-1MSG"
Net.WELL[95].id=95
Net.WELL[95].slot=86400
Net.WELL[95].file="graphe0_IN_1_GW_1-1MSG"
Net.WELL[96].id=96
Net.WELL[96].slot=86400
Net.WELL[96].file="graphe0_IN_1_GW_1-1MSG"
Net.WELL[97].id=97
Net.WELL[97].slot=86400
Net.WELL[97].file="graphe0_IN_1_GW_1-1MSG"
Net.WELL[98].id=98
Net.WELL[98].slot=86400
Net.WELL[98].file="graphe0_IN_1_GW_1-1MSG"
Net.WELL[99].id=99
Net.WELL[99].slot=86400
Net.WELL[99].file="graphe0_IN_1_GW_1-1MSG"
Net.WELL[100].id=100
Net.WELL[100].slot=86400
Net.WELL[100].file="graphe0_IN_1_GW_1-1MSG"
Net.WELL[101].id=101
Net.WELL[101].slot=86400
Net.WELL[101].file="graphe0_IN_1_GW_1-1MSG"
Net.WELL[102].id=102
Net.WELL[102].slot=86400
Net.WELL[102].file="graphe0_IN_1_GW_1-1MSG"
Net.WELL[103].id=103
Net.WELL[103].slot=86400
Net.WELL[103].file="graphe0_IN_1_GW_1-1MSG"
Net.WELL[104].id=104
Net.WELL[104].slot=86400
Net.WELL[104].file="graphe0_IN_1_GW_1-1MSG"
Net.WELL[105].id=105
Net.WELL[105].slot=86400
Net.WELL[105].file="graphe0_IN_1_GW_1-1MSG"
Net.WELL[106].id=106
Net.WELL[106].slot=86400
Net.WELL[106].file="graphe0_IN_1_GW_1-1MSG"
Net.WELL[107].id=107
Net.WELL[107].slot=86400
Net.WELL[107].file="graphe0_IN_1_GW_1-1MSG"
Net.WELL[108].id=108
Net.WELL[108].slot=86400
Net.WELL[108].file="graphe0_IN_1_GW_1-1MSG"
Net.WELL[109].id=109
Net.WELL[109].slot=86400
Net.WELL[109].file="graphe0_IN_1_GW_1-1MSG"
Net.WELL[110].id=110
Net.WELL[110].slot=86400
Net.WELL[110].file="graphe0_IN_1_GW_1-1MSG"
Net.WELL[111].id=111
Net.WELL[111].slot=86400
Net.WELL[111].file="graphe0_IN_1_GW_1-1MSG"
Net.WELL[112].id=112
Net.WELL[112].slot=86400
Net.WELL[112].file="graphe0_IN_1_GW_1-1MSG"
Net.WELL[113].id=113
Net.WELL[113].slot=86400
Net.WELL[113].file="graphe0_IN_1_GW_1-1MSG"
Net.WELL[114].id=114
Net.WELL[114].slot=86400
Net.WELL[114].file="graphe0_IN_1_GW_1-1MSG"
Net.WELL[115].id=115
Net.WELL[115].slot=86400
Net.WELL[115].file="graphe0_IN_1_GW_1-1MSG"
Net.WELL[116].id=116
Net.WELL[116].slot=86400
Net.WELL[116].file="graphe0_IN_1_GW_1-1MSG"
Net.WELL[117].id=117
Net.WELL[117].slot=86400
Net.WELL[117].file="graphe0_IN_1_GW_1-1MSG"
Net.WELL[118].id=118
Net.WELL[118].slot=86400
Net.WELL[118].file="graphe0_IN_1_GW_1-1MSG"
Net.WELL[119].id=119
Net.WELL[119].slot=86400
Net.WELL[119].file="graphe0_IN_1_GW_1-1MSG"
Net.WELL[120].id=120
Net.WELL[120].slot=86400
Net.WELL[120].file="graphe0_IN_1_GW_1-1MSG"
Net.WELL[121].id=121
Net.WELL[121].slot=86400
Net.WELL[121].file="graphe0_IN_1_GW_1-1MSG"
Net.WELL[122].id=122
Net.WELL[122].slot=86400
Net.WELL[122].file="graphe0_IN_1_GW_1-1MSG"
Net.WELL[123].id=123
Net.WELL[123].slot=86400
Net.WELL[123].file="graphe0_IN_1_GW_1-1MSG"
Net.WELL[124].id=124
Net.WELL[124].slot=86400
Net.WELL[124].file="graphe0_IN_1_GW_1-1MSG"
Net.WELL[125].id=125
Net.WELL[125].slot=86400
Net.WELL[125].file="graphe0_IN_1_GW_1-1MSG"
Net.WELL[126].id=126
Net.WELL[126].slot=86400
Net.WELL[126].file="graphe0_IN_1_GW_1-1MSG"
Net.WELL[127].id=127
Net.WELL[127].slot=86400
Net.WELL[127].file="graphe0_IN_1_GW_1-1MSG"
Net.WELL[128].id=128
Net.WELL[128].slot=86400
Net.WELL[128].file="graphe0_IN_1_GW_1-1MSG"
Net.WELL[129].id=129
Net.WELL[129].slot=86400
Net.WELL[129].file="graphe0_IN_1_GW_1-1MSG"
Net.WELL[130].id=130
Net.WELL[130].slot=86400
Net.WELL[130].file="graphe0_IN_1_GW_1-1MSG"
Net.WELL[131].id=131
Net.WELL[131].slot=86400
Net.WELL[131].file="graphe0_IN_1_GW_1-1MSG"
Net.WELL[132].id=132
Net.WELL[132].slot=86400
Net.WELL[132].file="graphe0_IN_1_GW_1-1MSG"
Net.WELL[133].id=133
Net.WELL[133].slot=86400
Net.WELL[133].file="graphe0_IN_1_GW_1-1MSG"
Net.WELL[134].id=134
Net.WELL[134].slot=86400
Net.WELL[134].file="graphe0_IN_1_GW_1-1MSG"
Net.WELL[135].id=135
Net.WELL[135].slot=86400
Net.WELL[135].file="graphe0_IN_1_GW_1-1MSG"
Net.WELL[136].id=136
Net.WELL[136].slot=86400
Net.WELL[136].file="graphe0_IN_1_GW_1-1MSG"
Net.WELL[137].id=137
Net.WELL[137].slot=86400
Net.WELL[137].file="graphe0_IN_1_GW_1-1MSG"
Net.WELL[138].id=138
Net.WELL[138].slot=86400
Net.WELL[138].file="graphe0_IN_1_GW_1-1MSG"
Net.WELL[139].id=139
Net.WELL[139].slot=86400
Net.WELL[139].file="graphe0_IN_1_GW_1-1MSG"
Net.WELL[140].id=140
Net.WELL[140].slot=86400
Net.WELL[140].file="graphe0_IN_1_GW_1-1MSG"
Net.WELL[141].id=141
Net.WELL[141].slot=86400
Net.WELL[141].file="graphe0_IN_1_GW_1-1MSG"
Net.WELL[142].id=142
Net.WELL[142].slot=86400
Net.WELL[142].file="graphe0_IN_1_GW_1-1MSG"
Net.WELL[143].id=143
Net.WELL[143].slot=86400
Net.WELL[143].file="graphe0_IN_1_GW_1-1MSG"
Net.WELL[144].id=144
Net.WELL[144].slot=86400
Net.WELL[144].file="graphe0_IN_1_GW_1-1MSG"
Net.WELL[145].id=145
Net.WELL[145].slot=86400
Net.WELL[145].file="graphe0_IN_1_GW_1-1MSG"
Net.WELL[146].id=146
Net.WELL[146].slot=86400
Net.WELL[146].file="graphe0_IN_1_GW_1-1MSG"
Net.WELL[147].id=147
Net.WELL[147].slot=86400
Net.WELL[147].file="graphe0_IN_1_GW_1-1MSG"
Net.WELL[148].id=148
Net.WELL[148].slot=86400
Net.WELL[148].file="graphe0_IN_1_GW_1-1MSG"
Net.WELL[149].id=149
Net.WELL[149].slot=86400
Net.WELL[149].file="graphe0_IN_1_GW_1-1MSG"
Net.WELL[150].id=150
Net.WELL[150].slot=86400
Net.WELL[150].file="graphe0_IN_1_GW_1-1MSG"
Net.WELL[151].id=151
Net.WELL[151].slot=86400
Net.WELL[151].file="graphe0_IN_1_GW_1-1MSG"
Net.WELL[152].id=152
Net.WELL[152].slot=86400
Net.WELL[152].file="graphe0_IN_1_GW_1-1MSG"
Net.WELL[153].id=153
Net.WELL[153].slot=86400
Net.WELL[153].file="graphe0_IN_1_GW_1-1MSG"
Net.WELL[154].id=154
Net.WELL[154].slot=86400
Net.WELL[154].file="graphe0_IN_1_GW_1-1MSG"
Net.WELL[155].id=155
Net.WELL[155].slot=86400
Net.WELL[155].file="graphe0_IN_1_GW_1-1MSG"
Net.WELL[156].id=156
Net.WELL[156].slot=86400
Net.WELL[156].file="graphe0_IN_1_GW_1-1MSG"
Net.WELL[157].id=157
Net.WELL[157].slot=86400
Net.WELL[157].file="graphe0_IN_1_GW_1-1MSG"
Net.WELL[158].id=158
Net.WELL[158].slot=86400
Net.WELL[158].file="graphe0_IN_1_GW_1-1MSG"
Net.WELL[159].id=159
Net.WELL[159].slot=86400
Net.WELL[159].file="graphe0_IN_1_GW_1-1MSG"
Net.WELL[160].id=160
Net.WELL[160].slot=86400
Net.WELL[160].file="graphe0_IN_1_GW_1-1MSG"
Net.WELL[161].id=161
Net.WELL[161].slot=86400
Net.WELL[161].file="graphe0_IN_1_GW_1-1MSG"
Net.WELL[162].id=162
Net.WELL[162].slot=86400
Net.WELL[162].file="graphe0_IN_1_GW_1-1MSG"
Net.WELL[163].id=163
Net.WELL[163].slot=86400
Net.WELL[163].file="graphe0_IN_1_GW_1-1MSG"
Net.WELL[164].id=164
Net.WELL[164].slot=86400
Net.WELL[164].file="graphe0_IN_1_GW_1-1MSG"
Net.WELL[165].id=165
Net.WELL[165].slot=86400
Net.WELL[165].file="graphe0_IN_1_GW_1-1MSG"
Net.WELL[166].id=166
Net.WELL[166].slot=86400
Net.WELL[166].file="graphe0_IN_1_GW_1-1MSG"
Net.WELL[167].id=167
Net.WELL[167].slot=86400
Net.WELL[167].file="graphe0_IN_1_GW_1-1MSG"
Net.WELL[168].id=168
Net.WELL[168].slot=86400
Net.WELL[168].file="graphe0_IN_1_GW_1-1MSG"
Net.WELL[169].id=169
Net.WELL[169].slot=86400
Net.WELL[169].file="graphe0_IN_1_GW_1-1MSG"
Net.WELL[170].id=170
Net.WELL[170].slot=86400
Net.WELL[170].file="graphe0_IN_1_GW_1-1MSG"
Net.WELL[171].id=171
Net.WELL[171].slot=86400
Net.WELL[171].file="graphe0_IN_1_GW_1-1MSG"
Net.WELL[172].id=172
Net.WELL[172].slot=86400
Net.WELL[172].file="graphe0_IN_1_GW_1-1MSG"
Net.WELL[173].id=173
Net.WELL[173].slot=86400
Net.WELL[173].file="graphe0_IN_1_GW_1-1MSG"
Net.WELL[174].id=174
Net.WELL[174].slot=86400
Net.WELL[174].file="graphe0_IN_1_GW_1-1MSG"
Net.WELL[175].id=175
Net.WELL[175].slot=86400
Net.WELL[175].file="graphe0_IN_1_GW_1-1MSG"
Net.WELL[176].id=176
Net.WELL[176].slot=86400
Net.WELL[176].file="graphe0_IN_1_GW_1-1MSG"
Net.WELL[177].id=177
Net.WELL[177].slot=86400
Net.WELL[177].file="graphe0_IN_1_GW_1-1MSG"
Net.WELL[178].id=178
Net.WELL[178].slot=86400
Net.WELL[178].file="graphe0_IN_1_GW_1-1MSG"
Net.WELL[179].id=179
Net.WELL[179].slot=86400
Net.WELL[179].file="graphe0_IN_1_GW_1-1MSG"
Net.WELL[180].id=180
Net.WELL[180].slot=86400
Net.WELL[180].file="graphe0_IN_1_GW_1-1MSG"
Net.WELL[181].id=181
Net.WELL[181].slot=86400
Net.WELL[181].file="graphe0_IN_1_GW_1-1MSG"
Net.WELL[182].id=182
Net.WELL[182].slot=86400
Net.WELL[182].file="graphe0_IN_1_GW_1-1MSG"
Net.WELL[183].id=183
Net.WELL[183].slot=86400
Net.WELL[183].file="graphe0_IN_1_GW_1-1MSG"
Net.WELL[184].id=184
Net.WELL[184].slot=86400
Net.WELL[184].file="graphe0_IN_1_GW_1-1MSG"
Net.WELL[185].id=185
Net.WELL[185].slot=86400
Net.WELL[185].file="graphe0_IN_1_GW_1-1MSG"
Net.WELL[186].id=186
Net.WELL[186].slot=86400
Net.WELL[186].file="graphe0_IN_1_GW_1-1MSG"
Net.WELL[187].id=187
Net.WELL[187].slot=86400
Net.WELL[187].file="graphe0_IN_1_GW_1-1MSG"
Net.WELL[188].id=188
Net.WELL[188].slot=86400
Net.WELL[188].file="graphe0_IN_1_GW_1-1MSG"
Net.WELL[189].id=189
Net.WELL[189].slot=86400
Net.WELL[189].file="graphe0_IN_1_GW_1-1MSG"
Net.WELL[190].id=190
Net.WELL[190].slot=86400
Net.WELL[190].file="graphe0_IN_1_GW_1-1MSG"
Net.WELL[191].id=191
Net.WELL[191].slot=86400
Net.WELL[191].file="graphe0_IN_1_GW_1-1MSG"
Net.WELL[192].id=192
Net.WELL[192].slot=86400
Net.WELL[192].file="graphe0_IN_1_GW_1-1MSG"
Net.WELL[193].id=193
Net.WELL[193].slot=86400
Net.WELL[193].file="graphe0_IN_1_GW_1-1MSG"
Net.WELL[194].id=194
Net.WELL[194].slot=86400
Net.WELL[194].file="graphe0_IN_1_GW_1-1MSG"
Net.WELL[195].id=195
Net.WELL[195].slot=86400
Net.WELL[195].file="graphe0_IN_1_GW_1-1MSG"
Net.WELL[196].id=196
Net.WELL[196].slot=86400
Net.WELL[196].file="graphe0_IN_1_GW_1-1MSG"
Net.WELL[197].id=197
Net.WELL[197].slot=86400
Net.WELL[197].file="graphe0_IN_1_GW_1-1MSG"
Net.WELL[198].id=198
Net.WELL[198].slot=86400
Net.WELL[198].file="graphe0_IN_1_GW_1-1MSG"
Net.WELL[199].id=199
Net.WELL[199].slot=86400
Net.WELL[199].file="graphe0_IN_1_GW_1-1MSG"
Net.WELL[200].id=200
Net.WELL[200].slot=86400
Net.WELL[200].file="graphe0_IN_1_GW_1-1MSG"
Net.WELL[201].id=201
Net.WELL[201].slot=86400
Net.WELL[201].file="graphe0_IN_1_GW_1-1MSG"
Net.WELL[202].id=202
Net.WELL[202].slot=86400
Net.WELL[202].file="graphe0_IN_1_GW_1-1MSG"
Net.WELL[203].id=203
Net.WELL[203].slot=86400
Net.WELL[203].file="graphe0_IN_1_GW_1-1MSG"
Net.WELL[204].id=204
Net.WELL[204].slot=86400
Net.WELL[204].file="graphe0_IN_1_GW_1-1MSG"
Net.WELL[205].id=205
Net.WELL[205].slot=86400
Net.WELL[205].file="graphe0_IN_1_GW_1-1MSG"
Net.WELL[206].id=206
Net.WELL[206].slot=86400
Net.WELL[206].file="graphe0_IN_1_GW_1-1MSG"
Net.WELL[207].id=207
Net.WELL[207].slot=86400
Net.WELL[207].file="graphe0_IN_1_GW_1-1MSG"
Net.WELL[208].id=208
Net.WELL[208].slot=86400
Net.WELL[208].file="graphe0_IN_1_GW_1-1MSG"
Net.WELL[209].id=209
Net.WELL[209].slot=86400
Net.WELL[209].file="graphe0_IN_1_GW_1-1MSG"
Net.WELL[210].id=210
Net.WELL[210].slot=86400
Net.WELL[210].file="graphe0_IN_1_GW_1-1MSG"
Net.WELL[211].id=211
Net.WELL[211].slot=86400
Net.WELL[211].file="graphe0_IN_1_GW_1-1MSG"
Net.WELL[212].id=212
Net.WELL[212].slot=86400
Net.WELL[212].file="graphe0_IN_1_GW_1-1MSG"
Net.WELL[213].id=213
Net.WELL[213].slot=86400
Net.WELL[213].file="graphe0_IN_1_GW_1-1MSG"
Net.WELL[214].id=214
Net.WELL[214].slot=86400
Net.WELL[214].file="graphe0_IN_1_GW_1-1MSG"
Net.WELL[215].id=215
Net.WELL[215].slot=86400
Net.WELL[215].file="graphe0_IN_1_GW_1-1MSG"
Net.WELL[216].id=216
Net.WELL[216].slot=86400
Net.WELL[216].file="graphe0_IN_1_GW_1-1MSG"
Net.WELL[217].id=217
Net.WELL[217].slot=86400
Net.WELL[217].file="graphe0_IN_1_GW_1-1MSG"
Net.WELL[218].id=218
Net.WELL[218].slot=86400
Net.WELL[218].file="graphe0_IN_1_GW_1-1MSG"
Net.WELL[219].id=219
Net.WELL[219].slot=86400
Net.WELL[219].file="graphe0_IN_1_GW_1-1MSG"
Net.WELL[220].id=220
Net.WELL[220].slot=86400
Net.WELL[220].file="graphe0_IN_1_GW_1-1MSG"
Net.WELL[221].id=221
Net.WELL[221].slot=86400
Net.WELL[221].file="graphe0_IN_1_GW_1-1MSG"
Net.WELL[222].id=222
Net.WELL[222].slot=86400
Net.WELL[222].file="graphe0_IN_1_GW_1-1MSG"
Net.WELL[223].id=223
Net.WELL[223].slot=86400
Net.WELL[223].file="graphe0_IN_1_GW_1-1MSG"
Net.WELL[224].id=224
Net.WELL[224].slot=86400
Net.WELL[224].file="graphe0_IN_1_GW_1-1MSG"
Net.WELL[225].id=225
Net.WELL[225].slot=86400
Net.WELL[225].file="graphe0_IN_1_GW_1-1MSG"
Net.WELL[226].id=226
Net.WELL[226].slot=86400
Net.WELL[226].file="graphe0_IN_1_GW_1-1MSG"
Net.WELL[227].id=227
Net.WELL[227].slot=86400
Net.WELL[227].file="graphe0_IN_1_GW_1-1MSG"
Net.WELL[228].id=228
Net.WELL[228].slot=86400
Net.WELL[228].file="graphe0_IN_1_GW_1-1MSG"
Net.WELL[229].id=229
Net.WELL[229].slot=86400
Net.WELL[229].file="graphe0_IN_1_GW_1-1MSG"
Net.WELL[230].id=230
Net.WELL[230].slot=86400
Net.WELL[230].file="graphe0_IN_1_GW_1-1MSG"
Net.WELL[231].id=231
Net.WELL[231].slot=86400
Net.WELL[231].file="graphe0_IN_1_GW_1-1MSG"
Net.WELL[232].id=232
Net.WELL[232].slot=86400
Net.WELL[232].file="graphe0_IN_1_GW_1-1MSG"
Net.WELL[233].id=233
Net.WELL[233].slot=86400
Net.WELL[233].file="graphe0_IN_1_GW_1-1MSG"
Net.WELL[234].id=234
Net.WELL[234].slot=86400
Net.WELL[234].file="graphe0_IN_1_GW_1-1MSG"
Net.WELL[235].id=235
Net.WELL[235].slot=86400
Net.WELL[235].file="graphe0_IN_1_GW_1-1MSG"
Net.WELL[236].id=236
Net.WELL[236].slot=86400
Net.WELL[236].file="graphe0_IN_1_GW_1-1MSG"
Net.WELL[237].id=237
Net.WELL[237].slot=86400
Net.WELL[237].file="graphe0_IN_1_GW_1-1MSG"
Net.WELL[238].id=238
Net.WELL[238].slot=86400
Net.WELL[238].file="graphe0_IN_1_GW_1-1MSG"
Net.WELL[239].id=239
Net.WELL[239].slot=86400
Net.WELL[239].file="graphe0_IN_1_GW_1-1MSG"
Net.WELL[240].id=240
Net.WELL[240].slot=86400
Net.WELL[240].file="graphe0_IN_1_GW_1-1MSG"
Net.WELL[241].id=241
Net.WELL[241].slot=86400
Net.WELL[241].file="graphe0_IN_1_GW_1-1MSG"
Net.WELL[242].id=242
Net.WELL[242].slot=86400
Net.WELL[242].file="graphe0_IN_1_GW_1-1MSG"
Net.WELL[243].id=243
Net.WELL[243].slot=86400
Net.WELL[243].file="graphe0_IN_1_GW_1-1MSG"
Net.WELL[244].id=244
Net.WELL[244].slot=86400
Net.WELL[244].file="graphe0_IN_1_GW_1-1MSG"
Net.WELL[245].id=245
Net.WELL[245].slot=86400
Net.WELL[245].file="graphe0_IN_1_GW_1-1MSG"
Net.WELL[246].id=246
Net.WELL[246].slot=86400
Net.WELL[246].file="graphe0_IN_1_GW_1-1MSG"
Net.WELL[247].id=247
Net.WELL[247].slot=86400
Net.WELL[247].file="graphe0_IN_1_GW_1-1MSG"
Net.WELL[248].id=248
Net.WELL[248].slot=86400
Net.WELL[248].file="graphe0_IN_1_GW_1-1MSG"
Net.WELL[249].id=249
Net.WELL[249].slot=86400
Net.WELL[249].file="graphe0_IN_1_GW_1-1MSG"
Net.WELL[250].id=250
Net.WELL[250].slot=86400
Net.WELL[250].file="graphe0_IN_1_GW_1-1MSG"
Net.WELL[251].id=251
Net.WELL[251].slot=86400
Net.WELL[251].file="graphe0_IN_1_GW_1-1MSG"
Net.WELL[252].id=252
Net.WELL[252].slot=86400
Net.WELL[252].file="graphe0_IN_1_GW_1-1MSG"
Net.WELL[253].id=253
Net.WELL[253].slot=86400
Net.WELL[253].file="graphe0_IN_1_GW_1-1MSG"
Net.WELL[254].id=254
Net.WELL[254].slot=86400
Net.WELL[254].file="graphe0_IN_1_GW_1-1MSG"
Net.WELL[255].id=255
Net.WELL[255].slot=86400
Net.WELL[255].file="graphe0_IN_1_GW_1-1MSG"
Net.WELL[256].id=256
Net.WELL[256].slot=86400
Net.WELL[256].file="graphe0_IN_1_GW_1-1MSG"
Net.WELL[257].id=257
Net.WELL[257].slot=86400
Net.WELL[257].file="graphe0_IN_1_GW_1-1MSG"
Net.WELL[258].id=258
Net.WELL[258].slot=86400
Net.WELL[258].file="graphe0_IN_1_GW_1-1MSG"
Net.WELL[259].id=259
Net.WELL[259].slot=86400
Net.WELL[259].file="graphe0_IN_1_GW_1-1MSG"
Net.WELL[260].id=260
Net.WELL[260].slot=86400
Net.WELL[260].file="graphe0_IN_1_GW_1-1MSG"
Net.WELL[261].id=261
Net.WELL[261].slot=86400
Net.WELL[261].file="graphe0_IN_1_GW_1-1MSG"
Net.WELL[262].id=262
Net.WELL[262].slot=86400
Net.WELL[262].file="graphe0_IN_1_GW_1-1MSG"
Net.WELL[263].id=263
Net.WELL[263].slot=86400
Net.WELL[263].file="graphe0_IN_1_GW_1-1MSG"
Net.WELL[264].id=264
Net.WELL[264].slot=86400
Net.WELL[264].file="graphe0_IN_1_GW_1-1MSG"
Net.WELL[265].id=265
Net.WELL[265].slot=86400
Net.WELL[265].file="graphe0_IN_1_GW_1-1MSG"
Net.WELL[266].id=266
Net.WELL[266].slot=86400
Net.WELL[266].file="graphe0_IN_1_GW_1-1MSG"
Net.WELL[267].id=267
Net.WELL[267].slot=86400
Net.WELL[267].file="graphe0_IN_1_GW_1-1MSG"
Net.WELL[268].id=268
Net.WELL[268].slot=86400
Net.WELL[268].file="graphe0_IN_1_GW_1-1MSG"
Net.WELL[269].id=269
Net.WELL[269].slot=86400
Net.WELL[269].file="graphe0_IN_1_GW_1-1MSG"
Net.WELL[270].id=270
Net.WELL[270].slot=86400
Net.WELL[270].file="graphe0_IN_1_GW_1-1MSG"
Net.WELL[271].id=271
Net.WELL[271].slot=86400
Net.WELL[271].file="graphe0_IN_1_GW_1-1MSG"
Net.WELL[272].id=272
Net.WELL[272].slot=86400
Net.WELL[272].file="graphe0_IN_1_GW_1-1MSG"
Net.WELL[273].id=273
Net.WELL[273].slot=86400
Net.WELL[273].file="graphe0_IN_1_GW_1-1MSG"
Net.WELL[274].id=274
Net.WELL[274].slot=86400
Net.WELL[274].file="graphe0_IN_1_GW_1-1MSG"
Net.WELL[275].id=275
Net.WELL[275].slot=86400
Net.WELL[275].file="graphe0_IN_1_GW_1-1MSG"
Net.WELL[276].id=276
Net.WELL[276].slot=86400
Net.WELL[276].file="graphe0_IN_1_GW_1-1MSG"
Net.WELL[277].id=277
Net.WELL[277].slot=86400
Net.WELL[277].file="graphe0_IN_1_GW_1-1MSG"
Net.WELL[278].id=278
Net.WELL[278].slot=86400
Net.WELL[278].file="graphe0_IN_1_GW_1-1MSG"
Net.WELL[279].id=279
Net.WELL[279].slot=86400
Net.WELL[279].file="graphe0_IN_1_GW_1-1MSG"
Net.WELL[280].id=280
Net.WELL[280].slot=86400
Net.WELL[280].file="graphe0_IN_1_GW_1-1MSG"
Net.WELL[281].id=281
Net.WELL[281].slot=86400
Net.WELL[281].file="graphe0_IN_1_GW_1-1MSG"
Net.WELL[282].id=282
Net.WELL[282].slot=86400
Net.WELL[282].file="graphe0_IN_1_GW_1-1MSG"
Net.WELL[283].id=283
Net.WELL[283].slot=86400
Net.WELL[283].file="graphe0_IN_1_GW_1-1MSG"
Net.WELL[284].id=284
Net.WELL[284].slot=86400
Net.WELL[284].file="graphe0_IN_1_GW_1-1MSG"
Net.WELL[285].id=285
Net.WELL[285].slot=86400
Net.WELL[285].file="graphe0_IN_1_GW_1-1MSG"
Net.WELL[286].id=286
Net.WELL[286].slot=86400
Net.WELL[286].file="graphe0_IN_1_GW_1-1MSG"
Net.WELL[287].id=287
Net.WELL[287].slot=86400
Net.WELL[287].file="graphe0_IN_1_GW_1-1MSG"
Net.WELL[288].id=288
Net.WELL[288].slot=86400
Net.WELL[288].file="graphe0_IN_1_GW_1-1MSG"
Net.WELL[289].id=289
Net.WELL[289].slot=86400
Net.WELL[289].file="graphe0_IN_1_GW_1-1MSG"
Net.WELL[290].id=290
Net.WELL[290].slot=86400
Net.WELL[290].file="graphe0_IN_1_GW_1-1MSG"
Net.WELL[291].id=291
Net.WELL[291].slot=86400
Net.WELL[291].file="graphe0_IN_1_GW_1-1MSG"
Net.WELL[292].id=292
Net.WELL[292].slot=86400
Net.WELL[292].file="graphe0_IN_1_GW_1-1MSG"
Net.WELL[293].id=293
Net.WELL[293].slot=86400
Net.WELL[293].file="graphe0_IN_1_GW_1-1MSG"
Net.WELL[294].id=294
Net.WELL[294].slot=86400
Net.WELL[294].file="graphe0_IN_1_GW_1-1MSG"
Net.WELL[295].id=295
Net.WELL[295].slot=86400
Net.WELL[295].file="graphe0_IN_1_GW_1-1MSG"
Net.WELL[296].id=296
Net.WELL[296].slot=86400
Net.WELL[296].file="graphe0_IN_1_GW_1-1MSG"
Net.WELL[297].id=297
Net.WELL[297].slot=86400
Net.WELL[297].file="graphe0_IN_1_GW_1-1MSG"
Net.WELL[298].id=298
Net.WELL[298].slot=86400
Net.WELL[298].file="graphe0_IN_1_GW_1-1MSG"
Net.WELL[299].id=299
Net.WELL[299].slot=86400
Net.WELL[299].file="graphe0_IN_1_GW_1-1MSG"
Net.WELL[300].id=300
Net.WELL[300].slot=86400
Net.WELL[300].file="graphe0_IN_1_GW_1-1MSG"
Net.WELL[301].id=301
Net.WELL[301].slot=86400
Net.WELL[301].file="graphe0_IN_1_GW_1-1MSG"
Net.WELL[302].id=302
Net.WELL[302].slot=86400
Net.WELL[302].file="graphe0_IN_1_GW_1-1MSG"
Net.WELL[303].id=303
Net.WELL[303].slot=86400
Net.WELL[303].file="graphe0_IN_1_GW_1-1MSG"
Net.WELL[304].id=304
Net.WELL[304].slot=86400
Net.WELL[304].file="graphe0_IN_1_GW_1-1MSG"
Net.WELL[305].id=305
Net.WELL[305].slot=86400
Net.WELL[305].file="graphe0_IN_1_GW_1-1MSG"
Net.WELL[306].id=306
Net.WELL[306].slot=86400
Net.WELL[306].file="graphe0_IN_1_GW_1-1MSG"
Net.WELL[307].id=307
Net.WELL[307].slot=86400
Net.WELL[307].file="graphe0_IN_1_GW_1-1MSG"
Net.WELL[308].id=308
Net.WELL[308].slot=86400
Net.WELL[308].file="graphe0_IN_1_GW_1-1MSG"
Net.WELL[309].id=309
Net.WELL[309].slot=86400
Net.WELL[309].file="graphe0_IN_1_GW_1-1MSG"
Net.WELL[310].id=310
Net.WELL[310].slot=86400
Net.WELL[310].file="graphe0_IN_1_GW_1-1MSG"
Net.WELL[311].id=311
Net.WELL[311].slot=86400
Net.WELL[311].file="graphe0_IN_1_GW_1-1MSG"
Net.WELL[312].id=312
Net.WELL[312].slot=86400
Net.WELL[312].file="graphe0_IN_1_GW_1-1MSG"
Net.WELL[313].id=313
Net.WELL[313].slot=86400
Net.WELL[313].file="graphe0_IN_1_GW_1-1MSG"
Net.WELL[314].id=314
Net.WELL[314].slot=86400
Net.WELL[314].file="graphe0_IN_1_GW_1-1MSG"
Net.WELL[315].id=315
Net.WELL[315].slot=86400
Net.WELL[315].file="graphe0_IN_1_GW_1-1MSG"
Net.WELL[316].id=316
Net.WELL[316].slot=86400
Net.WELL[316].file="graphe0_IN_1_GW_1-1MSG"
Net.WELL[317].id=317
Net.WELL[317].slot=86400
Net.WELL[317].file="graphe0_IN_1_GW_1-1MSG"
Net.WELL[318].id=318
Net.WELL[318].slot=86400
Net.WELL[318].file="graphe0_IN_1_GW_1-1MSG"
Net.WELL[319].id=319
Net.WELL[319].slot=86400
Net.WELL[319].file="graphe0_IN_1_GW_1-1MSG"
Net.WELL[320].id=320
Net.WELL[320].slot=86400
Net.WELL[320].file="graphe0_IN_1_GW_1-1MSG"
Net.WELL[321].id=321
Net.WELL[321].slot=86400
Net.WELL[321].file="graphe0_IN_1_GW_1-1MSG"
Net.WELL[322].id=322
Net.WELL[322].slot=86400
Net.WELL[322].file="graphe0_IN_1_GW_1-1MSG"
Net.WELL[323].id=323
Net.WELL[323].slot=86400
Net.WELL[323].file="graphe0_IN_1_GW_1-1MSG"
Net.WELL[324].id=324
Net.WELL[324].slot=86400
Net.WELL[324].file="graphe0_IN_1_GW_1-1MSG"
Net.WELL[325].id=325
Net.WELL[325].slot=86400
Net.WELL[325].file="graphe0_IN_1_GW_1-1MSG"
Net.WELL[326].id=326
Net.WELL[326].slot=86400
Net.WELL[326].file="graphe0_IN_1_GW_1-1MSG"
Net.WELL[327].id=327
Net.WELL[327].slot=86400
Net.WELL[327].file="graphe0_IN_1_GW_1-1MSG"
Net.WELL[328].id=328
Net.WELL[328].slot=86400
Net.WELL[328].file="graphe0_IN_1_GW_1-1MSG"
Net.WELL[329].id=329
Net.WELL[329].slot=86400
Net.WELL[329].file="graphe0_IN_1_GW_1-1MSG"
Net.WELL[330].id=330
Net.WELL[330].slot=86400
Net.WELL[330].file="graphe0_IN_1_GW_1-1MSG"
Net.WELL[331].id=331
Net.WELL[331].slot=86400
Net.WELL[331].file="graphe0_IN_1_GW_1-1MSG"
Net.WELL[332].id=332
Net.WELL[332].slot=86400
Net.WELL[332].file="graphe0_IN_1_GW_1-1MSG"
Net.WELL[333].id=333
Net.WELL[333].slot=86400
Net.WELL[333].file="graphe0_IN_1_GW_1-1MSG"
Net.WELL[334].id=334
Net.WELL[334].slot=86400
Net.WELL[334].file="graphe0_IN_1_GW_1-1MSG"
Net.WELL[335].id=335
Net.WELL[335].slot=86400