[General]
user-interface=Cmdenv
network = lora.simulations.Net
sim-time-limit=86400s
ned-path=/Users/joffreyherard/Documents/Master_2/Projet_fin_etude/dev/src/src;/Users/joffreyherard/Documents/Master_2/Projet_fin_etude/dev/src/simulations
Net.WELL[0].id=0
Net.WELL[0].slot=3600
Net.WELL[0].file="graphe0_IN_4_GW_4-NA-24MSG"
Net.WELL[1].id=1
Net.WELL[1].slot=3600
Net.WELL[1].file="graphe0_IN_4_GW_4-NA-24MSG"
Net.WELL[2].id=2
Net.WELL[2].slot=3600
Net.WELL[2].file="graphe0_IN_4_GW_4-NA-24MSG"
Net.WELL[3].id=3
Net.WELL[3].slot=3600
Net.WELL[3].file="graphe0_IN_4_GW_4-NA-24MSG"
Net.WELL[4].id=4
Net.WELL[4].slot=3600
Net.WELL[4].file="graphe0_IN_4_GW_4-NA-24MSG"
Net.WELL[5].id=5
Net.WELL[5].slot=3600
Net.WELL[5].file="graphe0_IN_4_GW_4-NA-24MSG"
Net.WELL[6].id=6
Net.WELL[6].slot=3600
Net.WELL[6].file="graphe0_IN_4_GW_4-NA-24MSG"
Net.WELL[7].id=7
Net.WELL[7].slot=3600
Net.WELL[7].file="graphe0_IN_4_GW_4-NA-24MSG"
Net.WELL[8].id=8
Net.WELL[8].slot=3600
Net.WELL[8].file="graphe0_IN_4_GW_4-NA-24MSG"
Net.WELL[9].id=9
Net.WELL[9].slot=3600
Net.WELL[9].file="graphe0_IN_4_GW_4-NA-24MSG"
Net.WELL[10].id=10
Net.WELL[10].slot=3600
Net.WELL[10].file="graphe0_IN_4_GW_4-NA-24MSG"
Net.WELL[11].id=11
Net.WELL[11].slot=3600
Net.WELL[11].file="graphe0_IN_4_GW_4-NA-24MSG"
Net.WELL[12].id=12
Net.WELL[12].slot=3600
Net.WELL[12].file="graphe0_IN_4_GW_4-NA-24MSG"
Net.WELL[13].id=13
Net.WELL[13].slot=3600
Net.WELL[13].file="graphe0_IN_4_GW_4-NA-24MSG"
Net.WELL[14].id=14
Net.WELL[14].slot=3600
Net.WELL[14].file="graphe0_IN_4_GW_4-NA-24MSG"
Net.WELL[15].id=15
Net.WELL[15].slot=3600
Net.WELL[15].file="graphe0_IN_4_GW_4-NA-24MSG"
Net.WELL[16].id=16
Net.WELL[16].slot=3600
Net.WELL[16].file="graphe0_IN_4_GW_4-NA-24MSG"
Net.WELL[17].id=17
Net.WELL[17].slot=3600
Net.WELL[17].file="graphe0_IN_4_GW_4-NA-24MSG"
Net.WELL[18].id=18
Net.WELL[18].slot=3600
Net.WELL[18].file="graphe0_IN_4_GW_4-NA-24MSG"
Net.WELL[19].id=19
Net.WELL[19].slot=3600
Net.WELL[19].file="graphe0_IN_4_GW_4-NA-24MSG"
Net.WELL[20].id=20
Net.WELL[20].slot=3600
Net.WELL[20].file="graphe0_IN_4_GW_4-NA-24MSG"
Net.WELL[21].id=21
Net.WELL[21].slot=3600
Net.WELL[21].file="graphe0_IN_4_GW_4-NA-24MSG"
Net.WELL[22].id=22
Net.WELL[22].slot=3600
Net.WELL[22].file="graphe0_IN_4_GW_4-NA-24MSG"
Net.WELL[23].id=23
Net.WELL[23].slot=3600
Net.WELL[23].file="graphe0_IN_4_GW_4-NA-24MSG"
Net.WELL[24].id=24
Net.WELL[24].slot=3600
Net.WELL[24].file="graphe0_IN_4_GW_4-NA-24MSG"
Net.WELL[25].id=25
Net.WELL[25].slot=3600
Net.WELL[25].file="graphe0_IN_4_GW_4-NA-24MSG"
Net.WELL[26].id=26
Net.WELL[26].slot=3600
Net.WELL[26].file="graphe0_IN_4_GW_4-NA-24MSG"
Net.WELL[27].id=27
Net.WELL[27].slot=3600
Net.WELL[27].file="graphe0_IN_4_GW_4-NA-24MSG"
Net.WELL[28].id=28
Net.WELL[28].slot=3600
Net.WELL[28].file="graphe0_IN_4_GW_4-NA-24MSG"
Net.WELL[29].id=29
Net.WELL[29].slot=3600
Net.WELL[29].file="graphe0_IN_4_GW_4-NA-24MSG"
Net.WELL[30].id=30
Net.WELL[30].slot=3600
Net.WELL[30].file="graphe0_IN_4_GW_4-NA-24MSG"
Net.WELL[31].id=31
Net.WELL[31].slot=3600
Net.WELL[31].file="graphe0_IN_4_GW_4-NA-24MSG"
Net.WELL[32].id=32
Net.WELL[32].slot=3600
Net.WELL[32].file="graphe0_IN_4_GW_4-NA-24MSG"
Net.WELL[33].id=33
Net.WELL[33].slot=3600
Net.WELL[33].file="graphe0_IN_4_GW_4-NA-24MSG"
Net.WELL[34].id=34
Net.WELL[34].slot=3600
Net.WELL[34].file="graphe0_IN_4_GW_4-NA-24MSG"
Net.WELL[35].id=35
Net.WELL[35].slot=3600
Net.WELL[35].file="graphe0_IN_4_GW_4-NA-24MSG"
Net.WELL[36].id=36
Net.WELL[36].slot=3600
Net.WELL[36].file="graphe0_IN_4_GW_4-NA-24MSG"
Net.WELL[37].id=37
Net.WELL[37].slot=3600
Net.WELL[37].file="graphe0_IN_4_GW_4-NA-24MSG"
Net.WELL[38].id=38
Net.WELL[38].slot=3600
Net.WELL[38].file="graphe0_IN_4_GW_4-NA-24MSG"
Net.WELL[39].id=39
Net.WELL[39].slot=3600
Net.WELL[39].file="graphe0_IN_4_GW_4-NA-24MSG"
Net.WELL[40].id=40
Net.WELL[40].slot=3600
Net.WELL[40].file="graphe0_IN_4_GW_4-NA-24MSG"
Net.WELL[41].id=41
Net.WELL[41].slot=3600
Net.WELL[41].file="graphe0_IN_4_GW_4-NA-24MSG"
Net.WELL[42].id=42
Net.WELL[42].slot=3600
Net.WELL[42].file="graphe0_IN_4_GW_4-NA-24MSG"
Net.WELL[43].id=43
Net.WELL[43].slot=3600
Net.WELL[43].file="graphe0_IN_4_GW_4-NA-24MSG"
Net.WELL[44].id=44
Net.WELL[44].slot=3600
Net.WELL[44].file="graphe0_IN_4_GW_4-NA-24MSG"
Net.WELL[45].id=45
Net.WELL[45].slot=3600
Net.WELL[45].file="graphe0_IN_4_GW_4-NA-24MSG"
Net.WELL[46].id=46
Net.WELL[46].slot=3600
Net.WELL[46].file="graphe0_IN_4_GW_4-NA-24MSG"
Net.WELL[47].id=47
Net.WELL[47].slot=3600
Net.WELL[47].file="graphe0_IN_4_GW_4-NA-24MSG"
Net.WELL[48].id=48
Net.WELL[48].slot=3600
Net.WELL[48].file="graphe0_IN_4_GW_4-NA-24MSG"
Net.WELL[49].id=49
Net.WELL[49].slot=3600
Net.WELL[49].file="graphe0_IN_4_GW_4-NA-24MSG"
Net.WELL[50].id=50
Net.WELL[50].slot=3600
Net.WELL[50].file="graphe0_IN_4_GW_4-NA-24MSG"
Net.WELL[51].id=51
Net.WELL[51].slot=3600
Net.WELL[51].file="graphe0_IN_4_GW_4-NA-24MSG"
Net.WELL[52].id=52
Net.WELL[52].slot=3600
Net.WELL[52].file="graphe0_IN_4_GW_4-NA-24MSG"
Net.WELL[53].id=53
Net.WELL[53].slot=3600
Net.WELL[53].file="graphe0_IN_4_GW_4-NA-24MSG"
Net.WELL[54].id=54
Net.WELL[54].slot=3600
Net.WELL[54].file="graphe0_IN_4_GW_4-NA-24MSG"
Net.WELL[55].id=55
Net.WELL[55].slot=3600
Net.WELL[55].file="graphe0_IN_4_GW_4-NA-24MSG"
Net.WELL[56].id=56
Net.WELL[56].slot=3600
Net.WELL[56].file="graphe0_IN_4_GW_4-NA-24MSG"
Net.WELL[57].id=57
Net.WELL[57].slot=3600
Net.WELL[57].file="graphe0_IN_4_GW_4-NA-24MSG"
Net.WELL[58].id=58
Net.WELL[58].slot=3600
Net.WELL[58].file="graphe0_IN_4_GW_4-NA-24MSG"
Net.WELL[59].id=59
Net.WELL[59].slot=3600
Net.WELL[59].file="graphe0_IN_4_GW_4-NA-24MSG"
Net.WELL[60].id=60
Net.WELL[60].slot=3600
Net.WELL[60].file="graphe0_IN_4_GW_4-NA-24MSG"
Net.WELL[61].id=61
Net.WELL[61].slot=3600
Net.WELL[61].file="graphe0_IN_4_GW_4-NA-24MSG"
Net.WELL[62].id=62
Net.WELL[62].slot=3600
Net.WELL[62].file="graphe0_IN_4_GW_4-NA-24MSG"
Net.WELL[63].id=63
Net.WELL[63].slot=3600
Net.WELL[63].file="graphe0_IN_4_GW_4-NA-24MSG"
Net.WELL[64].id=64
Net.WELL[64].slot=3600
Net.WELL[64].file="graphe0_IN_4_GW_4-NA-24MSG"
Net.WELL[65].id=65
Net.WELL[65].slot=3600
Net.WELL[65].file="graphe0_IN_4_GW_4-NA-24MSG"
Net.WELL[66].id=66
Net.WELL[66].slot=3600
Net.WELL[66].file="graphe0_IN_4_GW_4-NA-24MSG"
Net.WELL[67].id=67
Net.WELL[67].slot=3600
Net.WELL[67].file="graphe0_IN_4_GW_4-NA-24MSG"
Net.WELL[68].id=68
Net.WELL[68].slot=3600
Net.WELL[68].file="graphe0_IN_4_GW_4-NA-24MSG"
Net.WELL[69].id=69
Net.WELL[69].slot=3600
Net.WELL[69].file="graphe0_IN_4_GW_4-NA-24MSG"
Net.WELL[70].id=70
Net.WELL[70].slot=3600
Net.WELL[70].file="graphe0_IN_4_GW_4-NA-24MSG"
Net.WELL[71].id=71
Net.WELL[71].slot=3600
Net.WELL[71].file="graphe0_IN_4_GW_4-NA-24MSG"
Net.WELL[72].id=72
Net.WELL[72].slot=3600
Net.WELL[72].file="graphe0_IN_4_GW_4-NA-24MSG"
Net.WELL[73].id=73
Net.WELL[73].slot=3600
Net.WELL[73].file="graphe0_IN_4_GW_4-NA-24MSG"
Net.WELL[74].id=74
Net.WELL[74].slot=3600
Net.WELL[74].file="graphe0_IN_4_GW_4-NA-24MSG"
Net.WELL[75].id=75
Net.WELL[75].slot=3600
Net.WELL[75].file="graphe0_IN_4_GW_4-NA-24MSG"
Net.WELL[76].id=76
Net.WELL[76].slot=3600
Net.WELL[76].file="graphe0_IN_4_GW_4-NA-24MSG"
Net.WELL[77].id=77
Net.WELL[77].slot=3600
Net.WELL[77].file="graphe0_IN_4_GW_4-NA-24MSG"
Net.WELL[78].id=78
Net.WELL[78].slot=3600
Net.WELL[78].file="graphe0_IN_4_GW_4-NA-24MSG"
Net.WELL[79].id=79
Net.WELL[79].slot=3600
Net.WELL[79].file="graphe0_IN_4_GW_4-NA-24MSG"
Net.WELL[80].id=80
Net.WELL[80].slot=3600
Net.WELL[80].file="graphe0_IN_4_GW_4-NA-24MSG"
Net.WELL[81].id=81
Net.WELL[81].slot=3600
Net.WELL[81].file="graphe0_IN_4_GW_4-NA-24MSG"
Net.WELL[82].id=82
Net.WELL[82].slot=3600
Net.WELL[82].file="graphe0_IN_4_GW_4-NA-24MSG"
Net.WELL[83].id=83
Net.WELL[83].slot=3600
Net.WELL[83].file="graphe0_IN_4_GW_4-NA-24MSG"
Net.WELL[84].id=84
Net.WELL[84].slot=3600
Net.WELL[84].file="graphe0_IN_4_GW_4-NA-24MSG"
Net.WELL[85].id=85
Net.WELL[85].slot=3600
Net.WELL[85].file="graphe0_IN_4_GW_4-NA-24MSG"
Net.WELL[86].id=86
Net.WELL[86].slot=3600
Net.WELL[86].file="graphe0_IN_4_GW_4-NA-24MSG"
Net.WELL[87].id=87
Net.WELL[87].slot=3600
Net.WELL[87].file="graphe0_IN_4_GW_4-NA-24MSG"
Net.WELL[88].id=88
Net.WELL[88].slot=3600
Net.WELL[88].file="graphe0_IN_4_GW_4-NA-24MSG"
Net.WELL[89].id=89
Net.WELL[89].slot=3600
Net.WELL[89].file="graphe0_IN_4_GW_4-NA-24MSG"
Net.WELL[90].id=90
Net.WELL[90].slot=3600
Net.WELL[90].file="graphe0_IN_4_GW_4-NA-24MSG"
Net.WELL[91].id=91
Net.WELL[91].slot=3600
Net.WELL[91].file="graphe0_IN_4_GW_4-NA-24MSG"
Net.WELL[92].id=92
Net.WELL[92].slot=3600
Net.WELL[92].file="graphe0_IN_4_GW_4-NA-24MSG"
Net.WELL[93].id=93
Net.WELL[93].slot=3600
Net.WELL[93].file="graphe0_IN_4_GW_4-NA-24MSG"
Net.WELL[94].id=94
Net.WELL[94].slot=3600
Net.WELL[94].file="graphe0_IN_4_GW_4-NA-24MSG"
Net.WELL[95].id=95
Net.WELL[95].slot=3600
Net.WELL[95].file="graphe0_IN_4_GW_4-NA-24MSG"
Net.WELL[96].id=96
Net.WELL[96].slot=3600
Net.WELL[96].file="graphe0_IN_4_GW_4-NA-24MSG"
Net.WELL[97].id=97
Net.WELL[97].slot=3600
Net.WELL[97].file="graphe0_IN_4_GW_4-NA-24MSG"
Net.WELL[98].id=98
Net.WELL[98].slot=3600
Net.WELL[98].file="graphe0_IN_4_GW_4-NA-24MSG"
Net.WELL[99].id=99
Net.WELL[99].slot=3600
Net.WELL[99].file="graphe0_IN_4_GW_4-NA-24MSG"
Net.WELL[100].id=100
Net.WELL[100].slot=3600
Net.WELL[100].file="graphe0_IN_4_GW_4-NA-24MSG"
Net.WGW[0].id=101
Net.WGW[0].file="graphe0_IN_4_GW_4-NA-24MSG"
Net.WGW[0].agreg=true
Net.WGW[0].battery=23760000
Net.WGW[1].id=102
Net.WGW[1].file="graphe0_IN_4_GW_4-NA-24MSG"
Net.WGW[1].agreg=true
Net.WGW[1].battery=23760000
Net.WGW[2].id=103
Net.WGW[2].file="graphe0_IN_4_GW_4-NA-24MSG"
Net.WGW[2].agreg=true
Net.WGW[2].battery=23760000
Net.WGW[3].id=104
Net.WGW[3].file="graphe0_IN_4_GW_4-NA-24MSG"
Net.WGW[3].agreg=true
Net.WGW[3].battery=23760000
Net.WGW[4].id=105
Net.WGW[4].file="graphe0_IN_4_GW_4-NA-24MSG"
Net.WGW[4].agreg=true
Net.WGW[4].battery=23760000
Net.WGW[5].id=106
Net.WGW[5].file="graphe0_IN_4_GW_4-NA-24MSG"
Net.WGW[5].agreg=true
Net.WGW[5].battery=23760000
Net.WGW[6].id=107
Net.WGW[6].file="graphe0_IN_4_GW_4-NA-24MSG"
Net.WGW[6].agreg=true
Net.WGW[6].battery=23760000
Net.WGW[7].id=108
Net.WGW[7].file="graphe0_IN_4_GW_4-NA-24MSG"
Net.WGW[7].agreg=true
Net.WGW[7].battery=23760000
Net.WGW[8].id=109
Net.WGW[8].file="graphe0_IN_4_GW_4-NA-24MSG"
Net.WGW[8].agreg=true
Net.WGW[8].battery=23760000
Net.WGW[9].id=110
Net.WGW[9].file="graphe0_IN_4_GW_4-NA-24MSG"
Net.WGW[9].agreg=true
Net.WGW[9].battery=23760000
Net.WGW[10].id=111
Net.WGW[10].file="graphe0_IN_4_GW_4-NA-24MSG"
Net.WGW[10].agreg=true
Net.WGW[10].battery=23760000
Net.WGW[11].id=112
Net.WGW[11].file="graphe0_IN_4_GW_4-NA-24MSG"
Net.WGW[11].agreg=true
Net.WGW[11].battery=23760000
Net.WGW[12].id=113
Net.WGW[12].file="graphe0_IN_4_GW_4-NA-24MSG"
Net.WGW[12].agreg=true
Net.WGW[12].battery=23760000
Net.WGW[13].id=114
Net.WGW[13].file="graphe0_IN_4_GW_4-NA-24MSG"
Net.WGW[13].agreg=true
Net.WGW[13].battery=23760000
Net.WGW[14].id=115
Net.WGW[14].file="graphe0_IN_4_GW_4-NA-24MSG"
Net.WGW[14].agreg=true
Net.WGW[14].battery=23760000
Net.WGW[15].id=116
Net.WGW[15].file="graphe0_IN_4_GW_4-NA-24MSG"
Net.WGW[15].agreg=true
Net.WGW[15].battery=23760000
Net.WGW[16].id=117
Net.WGW[16].file="graphe0_IN_4_GW_4-NA-24MSG"
Net.WGW[16].agreg=true
Net.WGW[16].battery=23760000
Net.WGW[17].id=118
Net.WGW[17].file="graphe0_IN_4_GW_4-NA-24MSG"
Net.WGW[17].agreg=true
Net.WGW[17].battery=23760000
Net.WGW[18].id=119
Net.WGW[18].file="graphe0_IN_4_GW_4-NA-24MSG"
Net.WGW[18].agreg=true
Net.WGW[18].battery=23760000
Net.WGW[19].id=120
Net.WGW[19].file="graphe0_IN_4_GW_4-NA-24MSG"
Net.WGW[19].agreg=true
Net.WGW[19].battery=23760000
Net.WGW[20].id=121
Net.WGW[20].file="graphe0_IN_4_GW_4-NA-24MSG"
Net.WGW[20].agreg=true
Net.WGW[20].battery=23760000
Net.WGW[21].id=122
Net.WGW[21].file="graphe0_IN_4_GW_4-NA-24MSG"
Net.WGW[21].agreg=true
Net.WGW[21].battery=23760000
Net.WGW[22].id=123
Net.WGW[22].file="graphe0_IN_4_GW_4-NA-24MSG"
Net.WGW[22].agreg=true
Net.WGW[22].battery=23760000
Net.WGW[23].id=124
Net.WGW[23].file="graphe0_IN_4_GW_4-NA-24MSG"
Net.WGW[23].agreg=true
Net.WGW[23].battery=23760000
Net.WGW[24].id=125
Net.WGW[24].file="graphe0_IN_4_GW_4-NA-24MSG"
Net.WGW[24].agreg=true
Net.WGW[24].battery=23760000
Net.WGW[25].id=126
Net.WGW[25].file="graphe0_IN_4_GW_4-NA-24MSG"
Net.WGW[25].agreg=true
Net.WGW[25].battery=23760000
Net.WGW[26].id=127
Net.WGW[26].file="graphe0_IN_4_GW_4-NA-24MSG"
Net.WGW[26].agreg=true
Net.WGW[26].battery=23760000
Net.WGW[27].id=128
Net.WGW[27].file="graphe0_IN_4_GW_4-NA-24MSG"
Net.WGW[27].agreg=true
Net.WGW[27].battery=23760000
Net.WGW[28].id=129
Net.WGW[28].file="graphe0_IN_4_GW_4-NA-24MSG"
Net.WGW[28].agreg=true
Net.WGW[28].battery=23760000
Net.WGW[29].id=130
Net.WGW[29].file="graphe0_IN_4_GW_4-NA-24MSG"
Net.WGW[29].agreg=true
Net.WGW[29].battery=23760000
Net.WGW[30].id=131
Net.WGW[30].file="graphe0_IN_4_GW_4-NA-24MSG"
Net.WGW[30].agreg=true
Net.WGW[30].battery=23760000
Net.WGW[31].id=132
Net.WGW[31].file="graphe0_IN_4_GW_4-NA-24MSG"
Net.WGW[31].agreg=true
Net.WGW[31].battery=23760000
Net.WGW[32].id=133
Net.WGW[32].file="graphe0_IN_4_GW_4-NA-24MSG"
Net.WGW[32].agreg=true
Net.WGW[32].battery=23760000
Net.WGW[33].id=134
Net.WGW[33].file="graphe0_IN_4_GW_4-NA-24MSG"
Net.WGW[33].agreg=true
Net.WGW[33].battery=23760000
Net.WGW[34].id=135
Net.WGW[34].file="graphe0_IN_4_GW_4-NA-24MSG"
Net.WGW[34].agreg=true
Net.WGW[34].battery=23760000
Net.WGW[35].id=136
Net.WGW[35].file="graphe0_IN_4_GW_4-NA-24MSG"
Net.WGW[35].agreg=true
Net.WGW[35].battery=23760000
Net.WGW[36].id=137
Net.WGW[36].file="graphe0_IN_4_GW_4-NA-24MSG"
Net.WGW[36].agreg=true
Net.WGW[36].battery=23760000
Net.WGW[37].id=138
Net.WGW[37].file="graphe0_IN_4_GW_4-NA-24MSG"
Net.WGW[37].agreg=true
Net.WGW[37].battery=23760000
Net.WGW[38].id=139
Net.WGW[38].file="graphe0_IN_4_GW_4-NA-24MSG"
Net.WGW[38].agreg=true
Net.WGW[38].battery=23760000
Net.WGW[39].id=140
Net.WGW[39].file="graphe0_IN_4_GW_4-NA-24MSG"
Net.WGW[39].agreg=true
Net.WGW[39].battery=23760000
Net.WGW[40].id=141
Net.WGW[40].file="graphe0_IN_4_GW_4-NA-24MSG"
Net.WGW[40].agreg=true
Net.WGW[40].battery=23760000
Net.WGW[41].id=142
Net.WGW[41].file="graphe0_IN_4_GW_4-NA-24MSG"
Net.WGW[41].agreg=true
Net.WGW[41].battery=23760000
Net.WGW[42].id=143
Net.WGW[42].file="graphe0_IN_4_GW_4-NA-24MSG"
Net.WGW[42].agreg=true
Net.WGW[42].battery=23760000
Net.WGW[43].id=144
Net.WGW[43].file="graphe0_IN_4_GW_4-NA-24MSG"
Net.WGW[43].agreg=true
Net.WGW[43].battery=23760000
Net.WGW[44].id=145
Net.WGW[44].file="graphe0_IN_4_GW_4-NA-24MSG"
Net.WGW[44].agreg=true
Net.WGW[44].battery=23760000
Net.WGW[45].id=146
Net.WGW[45].file="graphe0_IN_4_GW_4-NA-24MSG"
Net.WGW[45].agreg=true
Net.WGW[45].battery=23760000
Net.WGW[46].id=147
Net.WGW[46].file="graphe0_IN_4_GW_4-NA-24MSG"
Net.WGW[46].agreg=true
Net.WGW[46].battery=23760000
Net.WGW[47].id=148
Net.WGW[47].file="graphe0_IN_4_GW_4-NA-24MSG"
Net.WGW[47].agreg=true
Net.WGW[47].battery=23760000
Net.WGW[48].id=149
Net.WGW[48].file="graphe0_IN_4_GW_4-NA-24MSG"
Net.WGW[48].agreg=true
Net.WGW[48].battery=23760000
Net.WGW[49].id=150
Net.WGW[49].file="graphe0_IN_4_GW_4-NA-24MSG"
Net.WGW[49].agreg=true
Net.WGW[49].battery=23760000
Net.WGW[50].id=151
Net.WGW[50].file="graphe0_IN_4_GW_4-NA-24MSG"
Net.WGW[50].agreg=true
Net.WGW[50].battery=23760000
Net.WGW[51].id=152
Net.WGW[51].file="graphe0_IN_4_GW_4-NA-24MSG"
Net.WGW[51].agreg=true
Net.WGW[51].battery=23760000
Net.WGW[52].id=153
Net.WGW[52].file="graphe0_IN_4_GW_4-NA-24MSG"
Net.WGW[52].agreg=true
Net.WGW[52].battery=23760000
Net.WGW[53].id=154
Net.WGW[53].file="graphe0_IN_4_GW_4-NA-24MSG"
Net.WGW[53].agreg=true
Net.WGW[53].battery=23760000
Net.WGW[54].id=155
Net.WGW[54].file="graphe0_IN_4_GW_4-NA-24MSG"
Net.WGW[54].agreg=true
Net.WGW[54].battery=23760000
Net.WGW[55].id=156
Net.WGW[55].file="graphe0_IN_4_GW_4-NA-24MSG"
Net.WGW[55].agreg=true
Net.WGW[55].battery=23760000
Net.WGW[56].id=157
Net.WGW[56].file="graphe0_IN_4_GW_4-NA-24MSG"
Net.WGW[56].agreg=true
Net.WGW[56].battery=23760000
Net.WGW[57].id=158
Net.WGW[57].file="graphe0_IN_4_GW_4-NA-24MSG"
Net.WGW[57].agreg=true
Net.WGW[57].battery=23760000
Net.WGW[58].id=159
Net.WGW[58].file="graphe0_IN_4_GW_4-NA-24MSG"
Net.WGW[58].agreg=true
Net.WGW[58].battery=23760000
Net.WGW[59].id=160
Net.WGW[59].file="graphe0_IN_4_GW_4-NA-24MSG"
Net.WGW[59].agreg=true
Net.WGW[59].battery=23760000
Net.WGW[60].id=161
Net.WGW[60].file="graphe0_IN_4_GW_4-NA-24MSG"
Net.WGW[60].agreg=true
Net.WGW[60].battery=23760000
Net.WGW[61].id=162
Net.WGW[61].file="graphe0_IN_4_GW_4-NA-24MSG"
Net.WGW[61].agreg=true
Net.WGW[61].battery=23760000
Net.WGW[62].id=163
Net.WGW[62].file="graphe0_IN_4_GW_4-NA-24MSG"
Net.WGW[62].agreg=true
Net.WGW[62].battery=23760000
Net.WGW[63].id=164
Net.WGW[63].file="graphe0_IN_4_GW_4-NA-24MSG"
Net.WGW[63].agreg=true
Net.WGW[63].battery=23760000
Net.WGW[64].id=165
Net.WGW[64].file="graphe0_IN_4_GW_4-NA-24MSG"
Net.WGW[64].agreg=true
Net.WGW[64].battery=23760000
Net.WGW[65].id=166
Net.WGW[65].file="graphe0_IN_4_GW_4-NA-24MSG"
Net.WGW[65].agreg=true
Net.WGW[65].battery=23760000
Net.WGW[66].id=167
Net.WGW[66].file="graphe0_IN_4_GW_4-NA-24MSG"
Net.WGW[66].agreg=true
Net.WGW[66].battery=23760000
Net.WGW[67].id=168
Net.WGW[67].file="graphe0_IN_4_GW_4-NA-24MSG"
Net.WGW[67].agreg=true
Net.WGW[67].battery=23760000
Net.WGW[68].id=169
Net.WGW[68].file="graphe0_IN_4_GW_4-NA-24MSG"
Net.WGW[68].agreg=true
Net.WGW[68].battery=23760000
Net.WGW[69].id=170
Net.WGW[69].file="graphe0_IN_4_GW_4-NA-24MSG"
Net.WGW[69].agreg=true
Net.WGW[69].battery=23760000
Net.WGW[70].id=171
Net.WGW[70].file="graphe0_IN_4_GW_4-NA-24MSG"
Net.WGW[70].agreg=true
Net.WGW[70].battery=23760000
Net.WGW[71].id=172
Net.WGW[71].file="graphe0_IN_4_GW_4-NA-24MSG"
Net.WGW[71].agreg=true
Net.WGW[71].battery=23760000
Net.WGW[72].id=173
Net.WGW[72].file="graphe0_IN_4_GW_4-NA-24MSG"
Net.WGW[72].agreg=true
Net.WGW[72].battery=23760000
Net.WGW[73].id=174
Net.WGW[73].file="graphe0_IN_4_GW_4-NA-24MSG"
Net.WGW[73].agreg=true
Net.WGW[73].battery=23760000
Net.WGW[74].id=175
Net.WGW[74].file="graphe0_IN_4_GW_4-NA-24MSG"
Net.WGW[74].agreg=true
Net.WGW[74].battery=23760000
Net.WGW[75].id=176
Net.WGW[75].file="graphe0_IN_4_GW_4-NA-24MSG"
Net.WGW[75].agreg=true
Net.WGW[75].battery=23760000
Net.WGW[76].id=177
Net.WGW[76].file="graphe0_IN_4_GW_4-NA-24MSG"
Net.WGW[76].agreg=true
Net.WGW[76].battery=23760000
Net.WGW[77].id=178
Net.WGW[77].file="graphe0_IN_4_GW_4-NA-24MSG"
Net.WGW[77].agreg=true
Net.WGW[77].battery=23760000
Net.WGW[78].id=179
Net.WGW[78].file="graphe0_IN_4_GW_4-NA-24MSG"
Net.WGW[78].agreg=true
Net.WGW[78].battery=23760000
Net.WGW[79].id=180
Net.WGW[79].file="graphe0_IN_4_GW_4-NA-24MSG"
Net.WGW[79].agreg=true
Net.WGW[79].battery=23760000
Net.WGW[80].id=181
Net.WGW[80].file="graphe0_IN_4_GW_4-NA-24MSG"
Net.WGW[80].agreg=true
Net.WGW[80].battery=23760000
Net.WGW[81].id=182
Net.WGW[81].file="graphe0_IN_4_GW_4-NA-24MSG"
Net.WGW[81].agreg=true
Net.WGW[81].battery=23760000
Net.WGW[82].id=183
Net.WGW[82].file="graphe0_IN_4_GW_4-NA-24MSG"
Net.WGW[82].agreg=true
Net.WGW[82].battery=23760000
Net.WGW[83].id=184
Net.WGW[83].file="graphe0_IN_4_GW_4-NA-24MSG"
Net.WGW[83].agreg=true
Net.WGW[83].battery=23760000
Net.WGW[84].id=185
Net.WGW[84].file="graphe0_IN_4_GW_4-NA-24MSG"
Net.WGW[84].agreg=true
Net.WGW[84].battery=23760000
Net.WGW[85].id=186
Net.WGW[85].file="graphe0_IN_4_GW_4-NA-24MSG"
Net.WGW[85].agreg=true
Net.WGW[85].battery=23760000
Net.WGW[86].id=187
Net.WGW[86].file="graphe0_IN_4_GW_4-NA-24MSG"
Net.WGW[86].agreg=true
Net.WGW[86].battery=23760000
Net.WGW[87].id=188
Net.WGW[87].file="graphe0_IN_4_GW_4-NA-24MSG"
Net.WGW[87].agreg=true
Net.WGW[87].battery=23760000
Net.WGW[88].id=189
Net.WGW[88].file="graphe0_IN_4_GW_4-NA-24MSG"
Net.WGW[88].agreg=true
Net.WGW[88].battery=23760000
Net.WGW[89].id=190
Net.WGW[89].file="graphe0_IN_4_GW_4-NA-24MSG"
Net.WGW[89].agreg=true
Net.WGW[89].battery=23760000
Net.WGW[90].id=191
Net.WGW[90].file="graphe0_IN_4_GW_4-NA-24MSG"
Net.WGW[90].agreg=true
Net.WGW[90].battery=23760000
Net.WGW[91].id=192
Net.WGW[91].file="graphe0_IN_4_GW_4-NA-24MSG"
Net.WGW[91].agreg=true
Net.WGW[91].battery=23760000
Net.WGW[92].id=193
Net.WGW[92].file="graphe0_IN_4_GW_4-NA-24MSG"
Net.WGW[92].agreg=true
Net.WGW[92].battery=23760000
Net.WGW[93].id=194
Net.WGW[93].file="graphe0_IN_4_GW_4-NA-24MSG"
Net.WGW[93].agreg=true
Net.WGW[93].battery=23760000
Net.WGW[94].id=195
Net.WGW[94].file="graphe0_IN_4_GW_4-NA-24MSG"
Net.WGW[94].agreg=true
Net.WGW[94].battery=23760000
Net.WGW[95].id=196
Net.WGW[95].file="graphe0_IN_4_GW_4-NA-24MSG"
Net.WGW[95].agreg=true
Net.WGW[95].battery=23760000
Net.WGW[96].id=197
Net.WGW[96].file="graphe0_IN_4_GW_4-NA-24MSG"
Net.WGW[96].agreg=true
Net.WGW[96].battery=23760000
Net.WGW[97].id=198
Net.WGW[97].file="graphe0_IN_4_GW_4-NA-24MSG"
Net.WGW[97].agreg=true
Net.WGW[97].battery=23760000
Net.WGW[98].id=199
Net.WGW[98].file="graphe0_IN_4_GW_4-NA-24MSG"
Net.WGW[98].agreg=true
Net.WGW[98].battery=23760000
Net.WGW[99].id=200
Net.WGW[99].file="graphe0_IN_4_GW_4-NA-24MSG"
Net.WGW[99].agreg=true
Net.WGW[99].battery=23760000
Net.WGW[100].id=201
Net.WGW[100].file="graphe0_IN_4_GW_4-NA-24MSG"
Net.WGW[100].agreg=true
Net.WGW[100].battery=23760000
Net.WGW[101].id=202
Net.WGW[101].file="graphe0_IN_4_GW_4-NA-24MSG"
Net.WGW[101].agreg=true
Net.WGW[101].battery=23760000
Net.WGW[102].id=203
Net.WGW[102].file="graphe0_IN_4_GW_4-NA-24MSG"
Net.WGW[102].agreg=true
Net.WGW[102].battery=23760000
Net.WGW[103].id=204
Net.WGW[103].file="graphe0_IN_4_GW_4-NA-24MSG"
Net.WGW[103].agreg=true
Net.WGW[103].battery=23760000
Net.WGW[104].id=205
Net.WGW[104].file="graphe0_IN_4_GW_4-NA-24MSG"
Net.WGW[104].agreg=true
Net.WGW[104].battery=23760000
Net.WGW[105].id=206
Net.WGW[105].file="graphe0_IN_4_GW_4-NA-24MSG"
Net.WGW[105].agreg=true
Net.WGW[105].battery=23760000
Net.WGW[106].id=207
Net.WGW[106].file="graphe0_IN_4_GW_4-NA-24MSG"
Net.WGW[106].agreg=true
Net.WGW[106].battery=23760000
Net.WGW[107].id=208
Net.WGW[107].file="graphe0_IN_4_GW_4-NA-24MSG"
Net.WGW[107].agreg=true
Net.WGW[107].battery=23760000
Net.WGW[108].id=209
Net.WGW[108].file="graphe0_IN_4_GW_4-NA-24MSG"
Net.WGW[108].agreg=true
Net.WGW[108].battery=23760000
Net.WGW[109].id=210
Net.WGW[109].file="graphe0_IN_4_GW_4-NA-24MSG"
Net.WGW[109].agreg=true
Net.WGW[109].battery=23760000
Net.WGW[110].id=211
Net.WGW[110].file="graphe0_IN_4_GW_4-NA-24MSG"
Net.WGW[110].agreg=true
Net.WGW[110].battery=23760000
Net.WGW[111].id=212
Net.WGW[111].file="graphe0_IN_4_GW_4-NA-24MSG"
Net.WGW[111].agreg=true
Net.WGW[111].battery=23760000
Net.WGW[112].id=213
Net.WGW[112].file="graphe0_IN_4_GW_4-NA-24MSG"
Net.WGW[112].agreg=true
Net.WGW[112].battery=23760000
Net.WGW[113].id=214
Net.WGW[113].file="graphe0_IN_4_GW_4-NA-24MSG"
Net.WGW[113].agreg=true
Net.WGW[113].battery=23760000
Net.WGW[114].id=215
Net.WGW[114].file="graphe0_IN_4_GW_4-NA-24MSG"
Net.WGW[114].agreg=true
Net.WGW[114].battery=23760000
Net.WGW[115].id=216
Net.WGW[115].file="graphe0_IN_4_GW_4-NA-24MSG"
Net.WGW[115].agreg=true
Net.WGW[115].battery=23760000
Net.WGW[116].id=217
Net.WGW[116].file="graphe0_IN_4_GW_4-NA-24MSG"
Net.WGW[116].agreg=true
Net.WGW[116].battery=23760000
Net.WGW[117].id=218
Net.WGW[117].file="graphe0_IN_4_GW_4-NA-24MSG"
Net.WGW[117].agreg=true
Net.WGW[117].battery=23760000
Net.WGW[118].id=219
Net.WGW[118].file="graphe0_IN_4_GW_4-NA-24MSG"
Net.WGW[118].agreg=true
Net.WGW[118].battery=23760000
Net.WGW[119].id=220
Net.WGW[119].file="graphe0_IN_4_GW_4-NA-24MSG"
Net.WGW[119].agreg=true
Net.WGW[119].battery=23760000
Net.WGW[120].id=221
Net.WGW[120].file="graphe0_IN_4_GW_4-NA-24MSG"
Net.WGW[120].agreg=true
Net.WGW[120].battery=23760000
Net.WGW[121].id=222
Net.WGW[121].file="graphe0_IN_4_GW_4-NA-24MSG"
Net.WGW[121].agreg=true
Net.WGW[121].battery=23760000
Net.WGW[122].id=223
Net.WGW[122].file="graphe0_IN_4_GW_4-NA-24MSG"
Net.WGW[122].agreg=true
Net.WGW[122].battery=23760000
Net.WGW[123].id=224
Net.WGW[123].file="graphe0_IN_4_GW_4-NA-24MSG"
Net.WGW[123].agreg=true
Net.WGW[123].battery=23760000
Net.WGW[124].id=225
Net.WGW[124].file="graphe0_IN_4_GW_4-NA-24MSG"
Net.WGW[124].agreg=true
Net.WGW[124].battery=23760000
Net.WGW[125].id=226
Net.WGW[125].file="graphe0_IN_4_GW_4-NA-24MSG"
Net.WGW[125].agreg=true
Net.WGW[125].battery=23760000
Net.WGW[126].id=227
Net.WGW[126].file="graphe0_IN_4_GW_4-NA-24MSG"
Net.WGW[126].agreg=true
Net.WGW[126].battery=23760000
Net.WGW[127].id=228
Net.WGW[127].file="graphe0_IN_4_GW_4-NA-24MSG"
Net.WGW[127].agreg=true
Net.WGW[127].battery=23760000
Net.WGW[128].id=229
Net.WGW[128].file="graphe0_IN_4_GW_4-NA-24MSG"
Net.WGW[128].agreg=true
Net.WGW[128].battery=23760000
Net.WGW[129].id=230
Net.WGW[129].file="graphe0_IN_4_GW_4-NA-24MSG"
Net.WGW[129].agreg=true
Net.WGW[129].battery=23760000
Net.WGW[130].id=231
Net.WGW[130].file="graphe0_IN_4_GW_4-NA-24MSG"
Net.WGW[130].agreg=true
Net.WGW[130].battery=23760000
Net.WGW[131].id=232
Net.WGW[131].file="graphe0_IN_4_GW_4-NA-24MSG"
Net.WGW[131].agreg=true
Net.WGW[131].battery=23760000
Net.WGW[132].id=233
Net.WGW[132].file="graphe0_IN_4_GW_4-NA-24MSG"
Net.WGW[132].agreg=true
Net.WGW[132].battery=23760000
Net.WGW[133].id=234
Net.WGW[133].file="graphe0_IN_4_GW_4-NA-24MSG"
Net.WGW[133].agreg=true
Net.WGW[133].battery=23760000
Net.WGW[134].id=235
Net.WGW[134].file="graphe0_IN_4_GW_4-NA-24MSG"
Net.WGW[134].agreg=true
Net.WGW[134].battery=23760000
Net.WGW[135].id=236
Net.WGW[135].file="graphe0_IN_4_GW_4-NA-24MSG"
Net.WGW[135].agreg=true
Net.WGW[135].battery=23760000
Net.WGW[136].id=237
Net.WGW[136].file="graphe0_IN_4_GW_4-NA-24MSG"
Net.WGW[136].agreg=true
Net.WGW[136].battery=23760000
Net.WGW[137].id=238
Net.WGW[137].file="graphe0_IN_4_GW_4-NA-24MSG"
Net.WGW[137].agreg=true
Net.WGW[137].battery=23760000
Net.WGW[138].id=239
Net.WGW[138].file="graphe0_IN_4_GW_4-NA-24MSG"
Net.WGW[138].agreg=true
Net.WGW[138].battery=23760000
Net.WGW[139].id=240
Net.WGW[139].file="graphe0_IN_4_GW_4-NA-24MSG"
Net.WGW[139].agreg=true
Net.WGW[139].battery=23760000
Net.WGW[140].id=241
Net.WGW[140].file="graphe0_IN_4_GW_4-NA-24MSG"
Net.WGW[140].agreg=true
Net.WGW[140].battery=23760000
Net.WGW[141].id=242
Net.WGW[141].file="graphe0_IN_4_GW_4-NA-24MSG"
Net.WGW[141].agreg=true
Net.WGW[141].battery=23760000
Net.WGW[142].id=243
Net.WGW[142].file="graphe0_IN_4_GW_4-NA-24MSG"
Net.WGW[142].agreg=true
Net.WGW[142].battery=23760000
Net.WGW[143].id=244
Net.WGW[143].file="graphe0_IN_4_GW_4-NA-24MSG"
Net.WGW[143].agreg=true
Net.WGW[143].battery=23760000
Net.WGW[144].id=245
Net.WGW[144].file="graphe0_IN_4_GW_4-NA-24MSG"
Net.WGW[144].agreg=true
Net.WGW[144].battery=23760000
Net.WGW[145].id=246
Net.WGW[145].file="graphe0_IN_4_GW_4-NA-24MSG"
Net.WGW[145].agreg=true
Net.WGW[145].battery=23760000
Net.WGW[146].id=247
Net.WGW[146].file="graphe0_IN_4_GW_4-NA-24MSG"
Net.WGW[146].agreg=true
Net.WGW[146].battery=23760000
Net.WGW[147].id=248
Net.WGW[147].file="graphe0_IN_4_GW_4-NA-24MSG"
Net.WGW[147].agreg=true
Net.WGW[147].battery=23760000
Net.WGW[148].id=249
Net.WGW[148].file="graphe0_IN_4_GW_4-NA-24MSG"
Net.WGW[148].agreg=true
Net.WGW[148].battery=23760000
Net.WGW[149].id=250
Net.WGW[149].file="graphe0_IN_4_GW_4-NA-24MSG"
Net.WGW[149].agreg=true
Net.WGW[149].battery=23760000
Net.WGW[150].id=251
Net.WGW[150].file="graphe0_IN_4_GW_4-NA-24MSG"
Net.WGW[150].agreg=true
Net.WGW[150].battery=23760000
Net.WGW[151].id=252
Net.WGW[151].file="graphe0_IN_4_GW_4-NA-24MSG"
Net.WGW[151].agreg=true
Net.WGW[151].battery=23760000
Net.WGW[152].id=253
Net.WGW[152].file="graphe0_IN_4_GW_4-NA-24MSG"
Net.WGW[152].agreg=true
Net.WGW[152].battery=23760000
Net.WGW[153].id=254
Net.WGW[153].file="graphe0_IN_4_GW_4-NA-24MSG"
Net.WGW[153].agreg=true
Net.WGW[153].battery=23760000
Net.WGW[154].id=255
Net.WGW[154].file="graphe0_IN_4_GW_4-NA-24MSG"
Net.WGW[154].agreg=true
Net.WGW[154].battery=23760000
Net.WGW[155].id=256
Net.WGW[155].file="graphe0_IN_4_GW_4-NA-24MSG"
Net.WGW[155].agreg=true
Net.WGW[155].battery=23760000
Net.WGW[156].id=257
Net.WGW[156].file="graphe0_IN_4_GW_4-NA-24MSG"
Net.WGW[156].agreg=true
Net.WGW[156].battery=23760000
Net.WGW[157].id=258
Net.WGW[157].file="graphe0_IN_4_GW_4-NA-24MSG"
Net.WGW[157].agreg=true
Net.WGW[157].battery=23760000
Net.WGW[158].id=259
Net.WGW[158].file="graphe0_IN_4_GW_4-NA-24MSG"
Net.WGW[158].agreg=true
Net.WGW[158].battery=23760000
Net.WGW[159].id=260
Net.WGW[159].file="graphe0_IN_4_GW_4-NA-24MSG"
Net.WGW[159].agreg=true
Net.WGW[159].battery=23760000
Net.WGW[160].id=261
Net.WGW[160].file="graphe0_IN_4_GW_4-NA-24MSG"
Net.WGW[160].agreg=true
Net.WGW[160].battery=23760000
Net.WGW[161].id=262
Net.WGW[161].file="graphe0_IN_4_GW_4-NA-24MSG"
Net.WGW[161].agreg=true
Net.WGW[161].battery=23760000
Net.WGW[162].id=263
Net.WGW[162].file="graphe0_IN_4_GW_4-NA-24MSG"
Net.WGW[162].agreg=true
Net.WGW[162].battery=23760000
Net.WGW[163].id=264
Net.WGW[163].file="graphe0_IN_4_GW_4-NA-24MSG"
Net.WGW[163].agreg=true
Net.WGW[163].battery=23760000
Net.WGW[164].id=265
Net.WGW[164].file="graphe0_IN_4_GW_4-NA-24MSG"
Net.WGW[164].agreg=true
Net.WGW[164].battery=23760000
Net.WGW[165].id=266
Net.WGW[165].file="graphe0_IN_4_GW_4-NA-24MSG"
Net.WGW[165].agreg=true
Net.WGW[165].battery=23760000
Net.WGW[166].id=267
Net.WGW[166].file="graphe0_IN_4_GW_4-NA-24MSG"
Net.WGW[166].agreg=true
Net.WGW[166].battery=23760000
Net.WGW[167].id=268
Net.WGW[167].file="graphe0_IN_4_GW_4-NA-24MSG"
Net.WGW[167].agreg=true
Net.WGW[167].battery=23760000
Net.WGW[168].id=269
Net.WGW[168].file="graphe0_IN_4_GW_4-NA-24MSG"
Net.WGW[168].agreg=true
Net.WGW[168].battery=23760000
Net.WGW[169].id=270
Net.WGW[169].file="graphe0_IN_4_GW_4-NA-24MSG"
Net.WGW[169].agreg=true
Net.WGW[169].battery=23760000
Net.WGW[170].id=271
Net.WGW[170].file="graphe0_IN_4_GW_4-NA-24MSG"
Net.WGW[170].agreg=true
Net.WGW[170].battery=23760000
Net.WGW[171].id=272
Net.WGW[171].file="graphe0_IN_4_GW_4-NA-24MSG"
Net.WGW[171].agreg=true
Net.WGW[171].battery=23760000
Net.WGW[172].id=273
Net.WGW[172].file="graphe0_IN_4_GW_4-NA-24MSG"
Net.WGW[172].agreg=true
Net.WGW[172].battery=23760000
Net.WGW[173].id=274
Net.WGW[173].file="graphe0_IN_4_GW_4-NA-24MSG"
Net.WGW[173].agreg=true
Net.WGW[173].battery=23760000
Net.WGW[174].id=275
Net.WGW[174].file="graphe0_IN_4_GW_4-NA-24MSG"
Net.WGW[174].agreg=true
Net.WGW[174].battery=23760000
Net.WGW[175].id=276
Net.WGW[175].file="graphe0_IN_4_GW_4-NA-24MSG"