[General]
network = lora.simulations.Net
sim-time-limit=100s
Net.IsolatedNode.id = 42
Net.LoRaGW.id = 3
Net.LoRaWANGW.id = 2