[General]
network = lora.simulations.Net
sim-time-limit=1000s
Net.LWGW[0].id = 0
Net.LGW[0].id = 1
Net.LGW[1].id = 2
Net.LGW[2].id = 3
Net.LGW[3].id = 4
Net.LGW[4].id = 5
Net.LGW[5].id = 6
Net.LGW[6].id = 7
Net.LGW[7].id = 8
Net.LGW[8].id = 9
Net.LGW[9].id = 10
Net.LGW[10].id = 11
Net.LGW[11].id = 12
Net.IN[0].id = 21
Net.IN[1].id = 22
Net.IN[2].id = 23
Net.IN[3].id = 24
Net.IN[4].id = 25
Net.IN[5].id = 26
Net.IN[6].id = 27
Net.IN[7].id = 28
Net.IN[8].id = 29
Net.IN[9].id = 30
Net.IN[10].id = 31
Net.IN[11].id = 32
Net.IN[12].id = 33
Net.IN[13].id = 34
Net.IN[14].id = 35
Net.IN[15].id = 36
Net.IN[16].id = 37
Net.IN[17].id = 38
Net.IN[18].id = 39
Net.IN[19].id = 40